10010327
  -OEChem-02182403572D

 93 98  0     1  0  0  0  0  0999 V2000
    6.0010   -3.9050    0.0000 O   0  0  0  0  0  0  0  0  0  0  0  0
    6.0010   -0.9050    0.0000 O   0  0  0  0  0  0  0  0  0  0  0  0
    4.2690   -3.9050    0.0000 O   0  0  0  0  0  0  0  0  0  0  0  0
    7.7331   -0.9050    0.0000 O   0  0  0  0  0  0  0  0  0  0  0  0
    8.5991    1.5950    0.0000 O   0  0  0  0  0  0  0  0  0  0  0  0
    7.7331   -2.9050    0.0000 O   0  0  0  0  0  0  0  0  0  0  0  0
    4.2690   -2.9050    0.0000 O   0  0  0  0  0  0  0  0  0  0  0  0
    6.0010   -5.9050    0.0000 O   0  0  0  0  0  0  0  0  0  0  0  0
    4.2690   -6.9050    0.0000 O   0  0  0  0  0  0  0  0  0  0  0  0
    2.5369   -5.9050    0.0000 O   0  0  0  0  0  0  0  0  0  0  0  0
    9.4651   -0.9050    0.0000 O   0  0  0  0  0  0  0  0  0  0  0  0
   11.1972    0.0950    0.0000 O   0  0  0  0  0  0  0  0  0  0  0  0
    9.4651    3.0950    0.0000 O   0  0  0  0  0  0  0  0  0  0  0  0
   11.1972    2.0950    0.0000 O   0  0  0  0  0  0  0  0  0  0  0  0
    2.5369   -2.9050    0.0000 O   0  0  0  0  0  0  0  0  0  0  0  0
    7.7331    5.0950    0.0000 O   0  0  0  0  0  0  0  0  0  0  0  0
    7.7331    2.0950    0.0000 O   0  0  0  0  0  0  0  0  0  0  0  0
    5.9847    2.0604    0.0000 O   0  0  0  0  0  0  0  0  0  0  0  0
    4.2030    5.1192    0.0000 O   0  0  0  0  0  0  0  0  0  0  0  0
   12.0632    6.5950    0.0000 O   0  0  0  0  0  0  0  0  0  0  0  0
    6.0010   -2.9050    0.0000 C   0  0  1  0  0  0  0  0  0  0  0  0
    6.8671   -2.4050    0.0000 C   0  0  2  0  0  0  0  0  0  0  0  0
    5.1350   -2.4050    0.0000 C   0  0  2  0  0  0  0  0  0  0  0  0
    6.8671   -1.4050    0.0000 C   0  0  1  0  0  0  0  0  0  0  0  0
    5.1350   -1.4050    0.0000 C   0  0  2  0  0  0  0  0  0  0  0  0
    5.1350   -4.4050    0.0000 C   0  0  2  0  0  0  0  0  0  0  0  0
    5.1350   -5.4050    0.0000 C   0  0  1  0  0  0  0  0  0  0  0  0
    4.2690   -5.9050    0.0000 C   0  0  2  0  0  0  0  0  0  0  0  0
    3.4030   -5.4050    0.0000 C   0  0  1  0  0  0  0  0  0  0  0  0
    8.5991    0.5950    0.0000 C   0  0  1  0  0  0  0  0  0  0  0  0
    3.4030   -4.4050    0.0000 C   0  0  1  0  0  0  0  0  0  0  0  0
    9.4651    0.0950    0.0000 C   0  0  2  0  0  0  0  0  0  0  0  0
   10.3312    0.5950    0.0000 C   0  0  1  0  0  0  0  0  0  0  0  0
    7.7331    0.0950    0.0000 C   0  0  0  0  0  0  0  0  0  0  0  0
   10.3312    1.5950    0.0000 C   0  0  2  0  0  0  0  0  0  0  0  0
    9.4651    2.0950    0.0000 C   0  0  1  0  0  0  0  0  0  0  0  0
    4.2690   -0.9050    0.0000 C   0  0  0  0  0  0  0  0  0  0  0  0
    2.5369   -3.9050    0.0000 C   0  0  0  0  0  0  0  0  0  0  0  0
    8.5991    3.5950    0.0000 C   0  0  0  0  0  0  0  0  0  0  0  0
    8.5991    4.5950    0.0000 C   0  0  0  0  0  0  0  0  0  0  0  0
    7.7331    3.0950    0.0000 C   0  0  0  0  0  0  0  0  0  0  0  0
    6.8671    3.5950    0.0000 C   0  0  0  0  0  0  0  0  0  0  0  0
    9.4651    5.0950    0.0000 C   0  0  0  0  0  0  0  0  0  0  0  0
    6.8671    4.5950    0.0000 C   0  0  0  0  0  0  0  0  0  0  0  0
    5.9731    3.0603    0.0000 C   0  0  0  0  0  0  0  0  0  0  0  0
    5.9731    5.1297    0.0000 C   0  0  0  0  0  0  0  0  0  0  0  0
   10.3312    4.5950    0.0000 C   0  0  0  0  0  0  0  0  0  0  0  0
    9.4651    6.0950    0.0000 C   0  0  0  0  0  0  0  0  0  0  0  0
    5.0670    3.5742    0.0000 C   0  0  0  0  0  0  0  0  0  0  0  0
    5.0670    4.6158    0.0000 C   0  0  0  0  0  0  0  0  0  0  0  0
   11.1972    5.0950    0.0000 C   0  0  0  0  0  0  0  0  0  0  0  0
   10.3312    6.5950    0.0000 C   0  0  0  0  0  0  0  0  0  0  0  0
   11.1972    6.0950    0.0000 C   0  0  0  0  0  0  0  0  0  0  0  0
    5.4641   -3.2150    0.0000 H   0  0  0  0  0  0  0  0  0  0  0  0
    6.8671   -3.0250    0.0000 H   0  0  0  0  0  0  0  0  0  0  0  0
    4.5981   -2.0950    0.0000 H   0  0  0  0  0  0  0  0  0  0  0  0
    7.4040   -1.7150    0.0000 H   0  0  0  0  0  0  0  0  0  0  0  0
    5.1350   -0.7850    0.0000 H   0  0  0  0  0  0  0  0  0  0  0  0
    5.6720   -4.7150    0.0000 H   0  0  0  0  0  0  0  0  0  0  0  0
    5.1350   -6.0250    0.0000 H   0  0  0  0  0  0  0  0  0  0  0  0
    3.7320   -6.2150    0.0000 H   0  0  0  0  0  0  0  0  0  0  0  0
    3.4030   -6.0250    0.0000 H   0  0  0  0  0  0  0  0  0  0  0  0
    8.0622    0.9050    0.0000 H   0  0  0  0  0  0  0  0  0  0  0  0
    3.4030   -3.7850    0.0000 H   0  0  0  0  0  0  0  0  0  0  0  0
   10.0021   -0.2150    0.0000 H   0  0  0  0  0  0  0  0  0  0  0  0
   10.8681    0.9050    0.0000 H   0  0  0  0  0  0  0  0  0  0  0  0
    7.5210    0.6776    0.0000 H   0  0  0  0  0  0  0  0  0  0  0  0
    7.1225   -0.0127    0.0000 H   0  0  0  0  0  0  0  0  0  0  0  0
   10.8681    1.2850    0.0000 H   0  0  0  0  0  0  0  0  0  0  0  0
   10.0021    2.4050    0.0000 H   0  0  0  0  0  0  0  0  0  0  0  0
    4.5790   -0.3681    0.0000 H   0  0  0  0  0  0  0  0  0  0  0  0
    3.7320   -0.5950    0.0000 H   0  0  0  0  0  0  0  0  0  0  0  0
    3.9590   -1.4419    0.0000 H   0  0  0  0  0  0  0  0  0  0  0  0
    1.9264   -3.7973    0.0000 H   0  0  0  0  0  0  0  0  0  0  0  0
    2.3249   -4.4876    0.0000 H   0  0  0  0  0  0  0  0  0  0  0  0
    8.2700   -2.5950    0.0000 H   0  0  0  0  0  0  0  0  0  0  0  0
    3.7320   -2.5950    0.0000 H   0  0  0  0  0  0  0  0  0  0  0  0
    6.0010   -6.5250    0.0000 H   0  0  0  0  0  0  0  0  0  0  0  0
    3.7320   -7.2150    0.0000 H   0  0  0  0  0  0  0  0  0  0  0  0
    2.0000   -5.5950    0.0000 H   0  0  0  0  0  0  0  0  0  0  0  0
    8.9282   -1.2150    0.0000 H   0  0  0  0  0  0  0  0  0  0  0  0
   11.1972   -0.5250    0.0000 H   0  0  0  0  0  0  0  0  0  0  0  0
   11.7341    1.7850    0.0000 H   0  0  0  0  0  0  0  0  0  0  0  0
    2.0000   -2.5950    0.0000 H   0  0  0  0  0  0  0  0  0  0  0  0
    5.9803    5.7496    0.0000 H   0  0  0  0  0  0  0  0  0  0  0  0
   10.3312    3.9750    0.0000 H   0  0  0  0  0  0  0  0  0  0  0  0
    8.9282    6.4050    0.0000 H   0  0  0  0  0  0  0  0  0  0  0  0
    4.5313    3.2621    0.0000 H   0  0  0  0  0  0  0  0  0  0  0  0
   11.7341    4.7850    0.0000 H   0  0  0  0  0  0  0  0  0  0  0  0
   10.3312    7.2150    0.0000 H   0  0  0  0  0  0  0  0  0  0  0  0
    5.4514    1.7442    0.0000 H   0  0  0  0  0  0  0  0  0  0  0  0
    3.6648    4.8112    0.0000 H   0  0  0  0  0  0  0  0  0  0  0  0
   12.0632    7.2150    0.0000 H   0  0  0  0  0  0  0  0  0  0  0  0
 21  1  1  6  0  0  0
 26  1  1  1  0  0  0
  2 24  1  0  0  0  0
  2 25  1  0  0  0  0
  3 26  1  0  0  0  0
  3 31  1  0  0  0  0
 24  4  1  1  0  0  0
  4 34  1  0  0  0  0
  5 30  1  0  0  0  0
  5 36  1  0  0  0  0
 22  6  1  6  0  0  0
  6 76  1  0  0  0  0
 23  7  1  1  0  0  0
  7 77  1  0  0  0  0
 27  8  1  6  0  0  0
  8 78  1  0  0  0  0
 28  9  1  1  0  0  0
  9 79  1  0  0  0  0
 29 10  1  6  0  0  0
 10 80  1  0  0  0  0
 32 11  1  6  0  0  0
 11 81  1  0  0  0  0
 33 12  1  1  0  0  0
 12 82  1  0  0  0  0
 36 13  1  1  0  0  0
 13 39  1  0  0  0  0
 35 14  1  6  0  0  0
 14 83  1  0  0  0  0
 15 38  1  0  0  0  0
 15 84  1  0  0  0  0
 16 40  1  0  0  0  0
 16 44  1  0  0  0  0
 17 41  2  0  0  0  0
 18 45  1  0  0  0  0
 18 91  1  0  0  0  0
 19 50  1  0  0  0  0
 19 92  1  0  0  0  0
 20 53  1  0  0  0  0
 20 93  1  0  0  0  0
 21 22  1  0  0  0  0
 21 23  1  0  0  0  0
 21 54  1  0  0  0  0
 22 24  1  0  0  0  0
 22 55  1  0  0  0  0
 23 25  1  0  0  0  0
 23 56  1  0  0  0  0
 24 57  1  0  0  0  0
 25 37  1  6  0  0  0
 25 58  1  0  0  0  0
 26 27  1  0  0  0  0
 26 59  1  0  0  0  0
 27 28  1  0  0  0  0
 27 60  1  0  0  0  0
 28 29  1  0  0  0  0
 28 61  1  0  0  0  0
 29 31  1  0  0  0  0
 29 62  1  0  0  0  0
 30 32  1  0  0  0  0
 30 34  1  1  0  0  0
 30 63  1  0  0  0  0
 31 38  1  1  0  0  0
 31 64  1  0  0  0  0
 32 33  1  0  0  0  0
 32 65  1  0  0  0  0
 33 35  1  0  0  0  0
 33 66  1  0  0  0  0
 34 67  1  0  0  0  0
 34 68  1  0  0  0  0
 35 36  1  0  0  0  0
 35 69  1  0  0  0  0
 36 70  1  0  0  0  0
 37 71  1  0  0  0  0
 37 72  1  0  0  0  0
 37 73  1  0  0  0  0
 38 74  1  0  0  0  0
 38 75  1  0  0  0  0
 39 40  2  0  0  0  0
 39 41  1  0  0  0  0
 40 43  1  0  0  0  0
 41 42  1  0  0  0  0
 42 44  1  0  0  0  0
 42 45  2  0  0  0  0
 43 47  2  0  0  0  0
 43 48  1  0  0  0  0
 44 46  2  0  0  0  0
 45 49  1  0  0  0  0
 46 50  1  0  0  0  0
 46 85  1  0  0  0  0
 47 51  1  0  0  0  0
 47 86  1  0  0  0  0
 48 52  2  0  0  0  0
 48 87  1  0  0  0  0
 49 50  2  0  0  0  0
 49 88  1  0  0  0  0
 51 53  2  0  0  0  0
 51 89  1  0  0  0  0
 52 53  1  0  0  0  0
 52 90  1  0  0  0  0
M  END
> <PUBCHEM_COMPOUND_CID>
10010327

> <PUBCHEM_COMPOUND_CANONICALIZED>
1

> <PUBCHEM_CACTVS_COMPLEXITY>
1280

> <PUBCHEM_CACTVS_HBOND_ACCEPTOR>
20

> <PUBCHEM_CACTVS_HBOND_DONOR>
12

> <PUBCHEM_CACTVS_ROTATABLE_BOND>
9

> <PUBCHEM_CACTVS_SUBSKEYS>
AAADcfB8PgAAAAAAAAAAAAAAAAAAAAAAAAA0aJECAAAAAACBQAAAGgAACAAADBSwmAMyDoAABgCIAqBSAAICCAAkIAAIiAFGCMgdNzaGNR6ieWCl4BUPuQfI7KzOIAAACAAIAABAAAAQABAAAAAAAAAAAA==

> <PUBCHEM_IUPAC_OPENEYE_NAME>
3-[(2S,3R,4S,5S,6R)-6-[[(2R,3R,4R,5S,6S)-3,5-dihydroxy-6-methyl-4-[(2S,3R,4S,5S,6R)-3,4,5-trihydroxy-6-(hydroxymethyl)tetrahydropyran-2-yl]oxy-tetrahydropyran-2-yl]oxymethyl]-3,4,5-trihydroxy-tetrahydropyran-2-yl]oxy-5,7-dihydroxy-2-(4-hydroxyphenyl)chromen-4-one

> <PUBCHEM_IUPAC_CAS_NAME>
3-[[(2S,3R,4S,5S,6R)-6-[[(2R,3R,4R,5S,6S)-3,5-dihydroxy-6-methyl-4-[[(2S,3R,4S,5S,6R)-3,4,5-trihydroxy-6-(hydroxymethyl)-2-oxanyl]oxy]-2-oxanyl]oxymethyl]-3,4,5-trihydroxy-2-oxanyl]oxy]-5,7-dihydroxy-2-(4-hydroxyphenyl)-1-benzopyran-4-one

> <PUBCHEM_IUPAC_NAME_MARKUP>
3-[(2<I>S</I>,3<I>R</I>,4<I>S</I>,5<I>S</I>,6<I>R</I>)-6-[[(2<I>R</I>,3<I>R</I>,4<I>R</I>,5<I>S</I>,6<I>S</I>)-3,5-dihydroxy-6-methyl-4-[(2<I>S</I>,3<I>R</I>,4<I>S</I>,5<I>S</I>,6<I>R</I>)-3,4,5-trihydroxy-6-(hydroxymethyl)oxan-2-yl]oxyoxan-2-yl]oxymethyl]-3,4,5-trihydroxyoxan-2-yl]oxy-5,7-dihydroxy-2-(4-hydroxyphenyl)chromen-4-one

> <PUBCHEM_IUPAC_NAME>
3-[(2S,3R,4S,5S,6R)-6-[[(2R,3R,4R,5S,6S)-3,5-dihydroxy-6-methyl-4-[(2S,3R,4S,5S,6R)-3,4,5-trihydroxy-6-(hydroxymethyl)oxan-2-yl]oxyoxan-2-yl]oxymethyl]-3,4,5-trihydroxyoxan-2-yl]oxy-5,7-dihydroxy-2-(4-hydroxyphenyl)chromen-4-one

> <PUBCHEM_IUPAC_SYSTEMATIC_NAME>
3-[(2S,3R,4S,5S,6R)-6-[[(2R,3R,4R,5S,6S)-4-[(2S,3R,4S,5S,6R)-6-(hydroxymethyl)-3,4,5-tris(oxidanyl)oxan-2-yl]oxy-6-methyl-3,5-bis(oxidanyl)oxan-2-yl]oxymethyl]-3,4,5-tris(oxidanyl)oxan-2-yl]oxy-2-(4-hydroxyphenyl)-5,7-bis(oxidanyl)chromen-4-one

> <PUBCHEM_IUPAC_TRADITIONAL_NAME>
3-[(2S,3R,4S,5S,6R)-6-[[(2R,3R,4R,5S,6S)-3,5-dihydroxy-6-methyl-4-[(2S,3R,4S,5S,6R)-3,4,5-trihydroxy-6-methylol-tetrahydropyran-2-yl]oxy-tetrahydropyran-2-yl]oxymethyl]-3,4,5-trihydroxy-tetrahydropyran-2-yl]oxy-5,7-dihydroxy-2-(4-hydroxyphenyl)chromone

> <PUBCHEM_IUPAC_INCHI>
InChI=1S/C33H40O20/c1-10-19(38)29(52-32-25(44)23(42)20(39)16(8-34)50-32)27(46)31(48-10)47-9-17-21(40)24(43)26(45)33(51-17)53-30-22(41)18-14(37)6-13(36)7-15(18)49-28(30)11-2-4-12(35)5-3-11/h2-7,10,16-17,19-21,23-27,29,31-40,42-46H,8-9H2,1H3/t10-,16+,17+,19-,20+,21+,23-,24-,25+,26+,27+,29+,31+,32-,33-/m0/s1

> <PUBCHEM_IUPAC_INCHIKEY>
MFIXKYXSBNIMPX-PBVGSPQASA-N

> <PUBCHEM_XLOGP3_AA>
-2.5

> <PUBCHEM_EXACT_MASS>
756.21129366

> <PUBCHEM_MOLECULAR_FORMULA>
C33H40O20

> <PUBCHEM_MOLECULAR_WEIGHT>
756.7

> <PUBCHEM_OPENEYE_CAN_SMILES>
CC1C(C(C(C(O1)OCC2C(C(C(C(O2)OC3=C(OC4=CC(=CC(=C4C3=O)O)O)C5=CC=C(C=C5)O)O)O)O)O)OC6C(C(C(C(O6)CO)O)O)O)O

> <PUBCHEM_OPENEYE_ISO_SMILES>
C[C@H]1[C@@H]([C@H]([C@H]([C@@H](O1)OC[C@@H]2[C@H]([C@@H]([C@H]([C@@H](O2)OC3=C(OC4=CC(=CC(=C4C3=O)O)O)C5=CC=C(C=C5)O)O)O)O)O)O[C@H]6[C@@H]([C@H]([C@@H]([C@H](O6)CO)O)O)O)O

> <PUBCHEM_CACTVS_TPSA>
324

> <PUBCHEM_MONOISOTOPIC_WEIGHT>
756.21129366

> <PUBCHEM_TOTAL_CHARGE>
0

> <PUBCHEM_HEAVY_ATOM_COUNT>
53

> <PUBCHEM_ATOM_DEF_STEREO_COUNT>
15

> <PUBCHEM_ATOM_UDEF_STEREO_COUNT>
0

> <PUBCHEM_BOND_DEF_STEREO_COUNT>
0

> <PUBCHEM_BOND_UDEF_STEREO_COUNT>
0

> <PUBCHEM_ISOTOPIC_ATOM_COUNT>
0

> <PUBCHEM_COMPONENT_COUNT>
1

> <PUBCHEM_CACTVS_TAUTO_COUNT>
-1

> <PUBCHEM_COORDINATE_TYPE>
1
5
255

> <PUBCHEM_BONDANNOTATIONS>
21  1  6
26  1  5
29  10  6
32  11  6
33  12  5
36  13  5
35  14  6
16  40  8
16  44  8
25  37  6
30  34  5
31  38  5
39  40  8
39  41  8
24  4  5
41  42  8
42  44  8
42  45  8
43  47  8
43  48  8
44  46  8
45  49  8
46  50  8
47  51  8
48  52  8
49  50  8
51  53  8
52  53  8
22  6  6
23  7  5
27  8  6
28  9  5

$$$$
