5748473
  -OEChem-02182403562D

 93 98  0     1  0  0  0  0  0999 V2000
    6.8671   -2.7857    0.0000 O   0  0  0  0  0  0  0  0  0  0  0  0
    8.5991   -1.7857    0.0000 O   0  0  0  0  0  0  0  0  0  0  0  0
    6.8671    0.2143    0.0000 O   0  0  0  0  0  0  0  0  0  0  0  0
    5.1350   -2.7857    0.0000 O   0  0  0  0  0  0  0  0  0  0  0  0
    8.8999   -3.4914    0.0000 O   0  0  0  0  0  0  0  0  0  0  0  0
    5.1350   -1.7857    0.0000 O   0  0  0  0  0  0  0  0  0  0  0  0
    8.5991    0.2143    0.0000 O   0  0  0  0  0  0  0  0  0  0  0  0
    6.8671   -4.7857    0.0000 O   0  0  0  0  0  0  0  0  0  0  0  0
   10.5687   -1.4384    0.0000 O   0  0  0  0  0  0  0  0  0  0  0  0
    5.1350   -5.7857    0.0000 O   0  0  0  0  0  0  0  0  0  0  0  0
    3.4030   -4.7857    0.0000 O   0  0  0  0  0  0  0  0  0  0  0  0
   11.8543   -2.9704    0.0000 O   0  0  0  0  0  0  0  0  0  0  0  0
   11.1703   -4.8498    0.0000 O   0  0  0  0  0  0  0  0  0  0  0  0
    5.1350    1.2143    0.0000 O   0  0  0  0  0  0  0  0  0  0  0  0
    2.5369   -3.2857    0.0000 O   0  0  0  0  0  0  0  0  0  0  0  0
    9.4651    2.7143    0.0000 O   0  0  0  0  0  0  0  0  0  0  0  0
    6.8671    1.2143    0.0000 O   0  0  0  0  0  0  0  0  0  0  0  0
    5.9629    2.7112    0.0000 O   0  0  0  0  0  0  0  0  0  0  0  0
    7.7210    5.7836    0.0000 O   0  0  0  0  0  0  0  0  0  0  0  0
   12.9292   -0.2857    0.0000 O   0  0  0  0  0  0  0  0  0  0  0  0
    6.8671   -1.7857    0.0000 C   0  0  2  0  0  0  0  0  0  0  0  0
    7.7331   -1.2857    0.0000 C   0  0  2  0  0  0  0  0  0  0  0  0
    6.0010   -1.2857    0.0000 C   0  0  2  0  0  0  0  0  0  0  0  0
    6.0010   -0.2857    0.0000 C   0  0  1  0  0  0  0  0  0  0  0  0
    7.7331   -0.2857    0.0000 C   0  0  2  0  0  0  0  0  0  0  0  0
    6.0010   -3.2857    0.0000 C   0  0  1  0  0  0  0  0  0  0  0  0
    9.2420   -2.5516    0.0000 C   0  0  2  0  0  0  0  0  0  0  0  0
    6.0010   -4.2857    0.0000 C   0  0  1  0  0  0  0  0  0  0  0  0
   10.2267   -2.3781    0.0000 C   0  0  1  0  0  0  0  0  0  0  0  0
    5.1350   -4.7857    0.0000 C   0  0  2  0  0  0  0  0  0  0  0  0
    4.2690   -4.2857    0.0000 C   0  0  1  0  0  0  0  0  0  0  0  0
   10.8695   -3.1441    0.0000 C   0  0  1  0  0  0  0  0  0  0  0  0
    4.2690   -3.2857    0.0000 C   0  0  1  0  0  0  0  0  0  0  0  0
   10.5276   -4.0837    0.0000 C   0  0  2  0  0  0  0  0  0  0  0  0
    9.5427   -4.2574    0.0000 C   0  0  2  0  0  0  0  0  0  0  0  0
    5.1350    0.2143    0.0000 C   0  0  0  0  0  0  0  0  0  0  0  0
    3.4030   -2.7857    0.0000 C   0  0  0  0  0  0  0  0  0  0  0  0
    9.2007   -5.1971    0.0000 C   0  0  0  0  0  0  0  0  0  0  0  0
    8.5991    1.2143    0.0000 C   0  0  0  0  0  0  0  0  0  0  0  0
    9.4651    1.7143    0.0000 C   0  0  0  0  0  0  0  0  0  0  0  0
    7.7331    1.7143    0.0000 C   0  0  0  0  0  0  0  0  0  0  0  0
    7.7331    2.7143    0.0000 C   0  0  0  0  0  0  0  0  0  0  0  0
   10.3312    1.2143    0.0000 C   0  0  0  0  0  0  0  0  0  0  0  0
    8.5991    3.2143    0.0000 C   0  0  0  0  0  0  0  0  0  0  0  0
    6.8231    3.2212    0.0000 C   0  0  0  0  0  0  0  0  0  0  0  0
    8.6152    4.2558    0.0000 C   0  0  0  0  0  0  0  0  0  0  0  0
   10.3312    0.2143    0.0000 C   0  0  0  0  0  0  0  0  0  0  0  0
   11.1972    1.7143    0.0000 C   0  0  0  0  0  0  0  0  0  0  0  0
    6.8151    4.2628    0.0000 C   0  0  0  0  0  0  0  0  0  0  0  0
    7.7171    4.7836    0.0000 C   0  0  0  0  0  0  0  0  0  0  0  0
   11.1972   -0.2857    0.0000 C   0  0  0  0  0  0  0  0  0  0  0  0
   12.0632    1.2143    0.0000 C   0  0  0  0  0  0  0  0  0  0  0  0
   12.0632    0.2143    0.0000 C   0  0  0  0  0  0  0  0  0  0  0  0
    6.3301   -2.0957    0.0000 H   0  0  0  0  0  0  0  0  0  0  0  0
    7.7331   -1.9057    0.0000 H   0  0  0  0  0  0  0  0  0  0  0  0
    5.4641   -0.9757    0.0000 H   0  0  0  0  0  0  0  0  0  0  0  0
    6.0010    0.3343    0.0000 H   0  0  0  0  0  0  0  0  0  0  0  0
    7.7331    0.3343    0.0000 H   0  0  0  0  0  0  0  0  0  0  0  0
    6.5380   -3.5957    0.0000 H   0  0  0  0  0  0  0  0  0  0  0  0
    9.4540   -1.9690    0.0000 H   0  0  0  0  0  0  0  0  0  0  0  0
    6.0010   -4.9057    0.0000 H   0  0  0  0  0  0  0  0  0  0  0  0
   10.8373   -2.2704    0.0000 H   0  0  0  0  0  0  0  0  0  0  0  0
    4.5981   -5.0957    0.0000 H   0  0  0  0  0  0  0  0  0  0  0  0
    4.2690   -4.9057    0.0000 H   0  0  0  0  0  0  0  0  0  0  0  0
   11.2680   -3.6190    0.0000 H   0  0  0  0  0  0  0  0  0  0  0  0
    4.2690   -2.6657    0.0000 H   0  0  0  0  0  0  0  0  0  0  0  0
   11.1381   -3.9760    0.0000 H   0  0  0  0  0  0  0  0  0  0  0  0
    8.9322   -4.3651    0.0000 H   0  0  0  0  0  0  0  0  0  0  0  0
    4.5244    0.3220    0.0000 H   0  0  0  0  0  0  0  0  0  0  0  0
    4.9230   -0.3683    0.0000 H   0  0  0  0  0  0  0  0  0  0  0  0
    4.5981   -1.4757    0.0000 H   0  0  0  0  0  0  0  0  0  0  0  0
    3.8015   -2.3107    0.0000 H   0  0  0  0  0  0  0  0  0  0  0  0
    3.0044   -2.3107    0.0000 H   0  0  0  0  0  0  0  0  0  0  0  0
    8.6181   -4.9851    0.0000 H   0  0  0  0  0  0  0  0  0  0  0  0
    8.9886   -5.7797    0.0000 H   0  0  0  0  0  0  0  0  0  0  0  0
    9.7833   -5.4092    0.0000 H   0  0  0  0  0  0  0  0  0  0  0  0
    6.8671   -5.4057    0.0000 H   0  0  0  0  0  0  0  0  0  0  0  0
   11.1793   -1.3307    0.0000 H   0  0  0  0  0  0  0  0  0  0  0  0
    4.5981   -6.0957    0.0000 H   0  0  0  0  0  0  0  0  0  0  0  0
    3.4030   -5.4057    0.0000 H   0  0  0  0  0  0  0  0  0  0  0  0
   12.2528   -3.4454    0.0000 H   0  0  0  0  0  0  0  0  0  0  0  0
   10.9583   -5.4324    0.0000 H   0  0  0  0  0  0  0  0  0  0  0  0
    4.5981    1.5243    0.0000 H   0  0  0  0  0  0  0  0  0  0  0  0
    2.0000   -2.9757    0.0000 H   0  0  0  0  0  0  0  0  0  0  0  0
    9.1557    4.5596    0.0000 H   0  0  0  0  0  0  0  0  0  0  0  0
    9.7942   -0.0957    0.0000 H   0  0  0  0  0  0  0  0  0  0  0  0
   11.1972    2.3343    0.0000 H   0  0  0  0  0  0  0  0  0  0  0  0
    6.2769    4.5707    0.0000 H   0  0  0  0  0  0  0  0  0  0  0  0
   11.1972   -0.9057    0.0000 H   0  0  0  0  0  0  0  0  0  0  0  0
   12.6002    1.5243    0.0000 H   0  0  0  0  0  0  0  0  0  0  0  0
    5.4224    3.0150    0.0000 H   0  0  0  0  0  0  0  0  0  0  0  0
    7.1852    6.0957    0.0000 H   0  0  0  0  0  0  0  0  0  0  0  0
   13.4662    0.0243    0.0000 H   0  0  0  0  0  0  0  0  0  0  0  0
 21  1  1  1  0  0  0
 26  1  1  6  0  0  0
 22  2  1  6  0  0  0
 27  2  1  1  0  0  0
  3 24  1  0  0  0  0
  3 25  1  0  0  0  0
  4 26  1  0  0  0  0
  4 33  1  0  0  0  0
  5 27  1  0  0  0  0
  5 35  1  0  0  0  0
 23  6  1  1  0  0  0
  6 71  1  0  0  0  0
 25  7  1  6  0  0  0
  7 39  1  0  0  0  0
 28  8  1  6  0  0  0
  8 77  1  0  0  0  0
 29  9  1  6  0  0  0
  9 78  1  0  0  0  0
 30 10  1  1  0  0  0
 10 79  1  0  0  0  0
 31 11  1  6  0  0  0
 11 80  1  0  0  0  0
 32 12  1  6  0  0  0
 12 81  1  0  0  0  0
 34 13  1  1  0  0  0
 13 82  1  0  0  0  0
 14 36  1  0  0  0  0
 14 83  1  0  0  0  0
 15 37  1  0  0  0  0
 15 84  1  0  0  0  0
 16 40  1  0  0  0  0
 16 44  1  0  0  0  0
 17 41  2  0  0  0  0
 18 45  1  0  0  0  0
 18 91  1  0  0  0  0
 19 50  1  0  0  0  0
 19 92  1  0  0  0  0
 20 53  1  0  0  0  0
 20 93  1  0  0  0  0
 21 22  1  0  0  0  0
 21 23  1  0  0  0  0
 21 54  1  0  0  0  0
 22 25  1  0  0  0  0
 22 55  1  0  0  0  0
 23 24  1  0  0  0  0
 23 56  1  0  0  0  0
 24 36  1  1  0  0  0
 24 57  1  0  0  0  0
 25 58  1  0  0  0  0
 26 28  1  0  0  0  0
 26 59  1  0  0  0  0
 27 29  1  0  0  0  0
 27 60  1  0  0  0  0
 28 30  1  0  0  0  0
 28 61  1  0  0  0  0
 29 32  1  0  0  0  0
 29 62  1  0  0  0  0
 30 31  1  0  0  0  0
 30 63  1  0  0  0  0
 31 33  1  0  0  0  0
 31 64  1  0  0  0  0
 32 34  1  0  0  0  0
 32 65  1  0  0  0  0
 33 37  1  1  0  0  0
 33 66  1  0  0  0  0
 34 35  1  0  0  0  0
 34 67  1  0  0  0  0
 35 38  1  6  0  0  0
 35 68  1  0  0  0  0
 36 69  1  0  0  0  0
 36 70  1  0  0  0  0
 37 72  1  0  0  0  0
 37 73  1  0  0  0  0
 38 74  1  0  0  0  0
 38 75  1  0  0  0  0
 38 76  1  0  0  0  0
 39 40  2  0  0  0  0
 39 41  1  0  0  0  0
 40 43  1  0  0  0  0
 41 42  1  0  0  0  0
 42 44  1  0  0  0  0
 42 45  2  0  0  0  0
 43 47  2  0  0  0  0
 43 48  1  0  0  0  0
 44 46  2  0  0  0  0
 45 49  1  0  0  0  0
 46 50  1  0  0  0  0
 46 85  1  0  0  0  0
 47 51  1  0  0  0  0
 47 86  1  0  0  0  0
 48 52  2  0  0  0  0
 48 87  1  0  0  0  0
 49 50  2  0  0  0  0
 49 88  1  0  0  0  0
 51 53  2  0  0  0  0
 51 89  1  0  0  0  0
 52 53  1  0  0  0  0
 52 90  1  0  0  0  0
M  END
> <PUBCHEM_COMPOUND_CID>
5748473

> <PUBCHEM_COMPOUND_CANONICALIZED>
1

> <PUBCHEM_CACTVS_COMPLEXITY>
1280

> <PUBCHEM_CACTVS_HBOND_ACCEPTOR>
20

> <PUBCHEM_CACTVS_HBOND_DONOR>
12

> <PUBCHEM_CACTVS_ROTATABLE_BOND>
9

> <PUBCHEM_CACTVS_SUBSKEYS>
AAADcfB8PgAAAAAAAAAAAAAAAAAAAAAAAAA0aJECAAAAAACBQAAAGgAACAAADBSwmAMyDoAABgCIAqBSAAICCAAkIAAIiAFGCMgdNzaGNR6ieWCl4BUPuQfI7KzOIAAACAAIAABAAAAQABAAAAAAAAAAAA==

> <PUBCHEM_IUPAC_OPENEYE_NAME>
5,7-dihydroxy-3-[(2R,3R,4S,5S,6R)-5-hydroxy-6-(hydroxymethyl)-4-[(2R,3R,4S,5S,6R)-3,4,5-trihydroxy-6-(hydroxymethyl)tetrahydropyran-2-yl]oxy-3-[(2S,3R,4R,5R,6S)-3,4,5-trihydroxy-6-methyl-tetrahydropyran-2-yl]oxy-tetrahydropyran-2-yl]oxy-2-(4-hydroxyphenyl)chromen-4-one

> <PUBCHEM_IUPAC_CAS_NAME>
5,7-dihydroxy-3-[[(2R,3R,4S,5S,6R)-5-hydroxy-6-(hydroxymethyl)-4-[[(2R,3R,4S,5S,6R)-3,4,5-trihydroxy-6-(hydroxymethyl)-2-oxanyl]oxy]-3-[[(2S,3R,4R,5R,6S)-3,4,5-trihydroxy-6-methyl-2-oxanyl]oxy]-2-oxanyl]oxy]-2-(4-hydroxyphenyl)-1-benzopyran-4-one

> <PUBCHEM_IUPAC_NAME_MARKUP>
5,7-dihydroxy-3-[(2<I>R</I>,3<I>R</I>,4<I>S</I>,5<I>S</I>,6<I>R</I>)-5-hydroxy-6-(hydroxymethyl)-4-[(2<I>R</I>,3<I>R</I>,4<I>S</I>,5<I>S</I>,6<I>R</I>)-3,4,5-trihydroxy-6-(hydroxymethyl)oxan-2-yl]oxy-3-[(2<I>S</I>,3<I>R</I>,4<I>R</I>,5<I>R</I>,6<I>S</I>)-3,4,5-trihydroxy-6-methyloxan-2-yl]oxyoxan-2-yl]oxy-2-(4-hydroxyphenyl)chromen-4-one

> <PUBCHEM_IUPAC_NAME>
5,7-dihydroxy-3-[(2R,3R,4S,5S,6R)-5-hydroxy-6-(hydroxymethyl)-4-[(2R,3R,4S,5S,6R)-3,4,5-trihydroxy-6-(hydroxymethyl)oxan-2-yl]oxy-3-[(2S,3R,4R,5R,6S)-3,4,5-trihydroxy-6-methyloxan-2-yl]oxyoxan-2-yl]oxy-2-(4-hydroxyphenyl)chromen-4-one

> <PUBCHEM_IUPAC_SYSTEMATIC_NAME>
3-[(2R,3R,4S,5S,6R)-6-(hydroxymethyl)-4-[(2R,3R,4S,5S,6R)-6-(hydroxymethyl)-3,4,5-tris(oxidanyl)oxan-2-yl]oxy-3-[(2S,3R,4R,5R,6S)-6-methyl-3,4,5-tris(oxidanyl)oxan-2-yl]oxy-5-oxidanyl-oxan-2-yl]oxy-2-(4-hydroxyphenyl)-5,7-bis(oxidanyl)chromen-4-one

> <PUBCHEM_IUPAC_TRADITIONAL_NAME>
5,7-dihydroxy-3-[(2R,3R,4S,5S,6R)-5-hydroxy-6-methylol-4-[(2R,3R,4S,5S,6R)-3,4,5-trihydroxy-6-methylol-tetrahydropyran-2-yl]oxy-3-[(2S,3R,4R,5R,6S)-3,4,5-trihydroxy-6-methyl-tetrahydropyran-2-yl]oxy-tetrahydropyran-2-yl]oxy-2-(4-hydroxyphenyl)chromone

> <PUBCHEM_IUPAC_INCHI>
InChI=1S/C33H40O20/c1-10-19(39)23(43)25(45)31(47-10)53-30-28(51-32-26(46)24(44)20(40)16(8-34)49-32)21(41)17(9-35)50-33(30)52-29-22(42)18-14(38)6-13(37)7-15(18)48-27(29)11-2-4-12(36)5-3-11/h2-7,10,16-17,19-21,23-26,28,30-41,43-46H,8-9H2,1H3/t10-,16+,17+,19-,20+,21-,23+,24-,25+,26+,28-,30+,31-,32+,33+/m0/s1

> <PUBCHEM_IUPAC_INCHIKEY>
ZOSYTGZBPSTVGJ-HHYFVRIJSA-N

> <PUBCHEM_XLOGP3_AA>
-2

> <PUBCHEM_EXACT_MASS>
756.21129366

> <PUBCHEM_MOLECULAR_FORMULA>
C33H40O20

> <PUBCHEM_MOLECULAR_WEIGHT>
756.7

> <PUBCHEM_OPENEYE_CAN_SMILES>
CC1C(C(C(C(O1)OC2C(C(C(OC2OC3=C(OC4=CC(=CC(=C4C3=O)O)O)C5=CC=C(C=C5)O)CO)O)OC6C(C(C(C(O6)CO)O)O)O)O)O)O

> <PUBCHEM_OPENEYE_ISO_SMILES>
C[C@H]1[C@@H]([C@H]([C@H]([C@@H](O1)O[C@@H]2[C@H]([C@H]([C@H](O[C@@H]2OC3=C(OC4=CC(=CC(=C4C3=O)O)O)C5=CC=C(C=C5)O)CO)O)O[C@@H]6[C@@H]([C@H]([C@@H]([C@H](O6)CO)O)O)O)O)O)O

> <PUBCHEM_CACTVS_TPSA>
324

> <PUBCHEM_MONOISOTOPIC_WEIGHT>
756.21129366

> <PUBCHEM_TOTAL_CHARGE>
0

> <PUBCHEM_HEAVY_ATOM_COUNT>
53

> <PUBCHEM_ATOM_DEF_STEREO_COUNT>
15

> <PUBCHEM_ATOM_UDEF_STEREO_COUNT>
0

> <PUBCHEM_BOND_DEF_STEREO_COUNT>
0

> <PUBCHEM_BOND_UDEF_STEREO_COUNT>
0

> <PUBCHEM_ISOTOPIC_ATOM_COUNT>
0

> <PUBCHEM_COMPONENT_COUNT>
1

> <PUBCHEM_CACTVS_TAUTO_COUNT>
-1

> <PUBCHEM_COORDINATE_TYPE>
1
5
255

> <PUBCHEM_BONDANNOTATIONS>
21  1  5
26  1  6
30  10  5
31  11  6
32  12  6
34  13  5
16  40  8
16  44  8
22  2  6
27  2  5
24  36  5
33  37  5
35  38  6
39  40  8
39  41  8
41  42  8
42  44  8
42  45  8
43  47  8
43  48  8
44  46  8
45  49  8
46  50  8
47  51  8
48  52  8
49  50  8
51  53  8
52  53  8
23  6  5
25  7  6
28  8  6
29  9  6

$$$$
