131752474
  -OEChem-02182403562D

115121  0     1  0  0  0  0  0999 V2000
    7.7744    3.2786    0.0000 O   0  0  0  0  0  0  0  0  0  0  0  0
    6.8671   -6.2873    0.0000 O   0  0  0  0  0  0  0  0  0  0  0  0
    5.1350   -4.2873    0.0000 O   0  0  0  0  0  0  0  0  0  0  0  0
    6.9141    4.7819    0.0000 O   0  0  0  0  0  0  0  0  0  0  0  0
    6.0346    1.2852    0.0000 O   0  0  0  0  0  0  0  0  0  0  0  0
    7.7331   -4.7873    0.0000 O   0  0  0  0  0  0  0  0  0  0  0  0
    7.7666    1.2786    0.0000 O   0  0  0  0  0  0  0  0  0  0  0  0
    6.8671   -4.2873    0.0000 O   0  0  0  0  0  0  0  0  0  0  0  0
    5.1350   -7.2873    0.0000 O   0  0  0  0  0  0  0  0  0  0  0  0
    6.0462    4.2852    0.0000 O   0  0  0  0  0  0  0  0  0  0  0  0
    3.4030   -6.2873    0.0000 O   0  0  0  0  0  0  0  0  0  0  0  0
    4.3103    3.2919    0.0000 O   0  0  0  0  0  0  0  0  0  0  0  0
    9.5102    4.2719    0.0000 O   0  0  0  0  0  0  0  0  0  0  0  0
    9.5180    6.2718    0.0000 O   0  0  0  0  0  0  0  0  0  0  0  0
    8.5991   -7.2873    0.0000 O   0  0  0  0  0  0  0  0  0  0  0  0
    7.7898    7.2785    0.0000 O   0  0  0  0  0  0  0  0  0  0  0  0
   10.3312   -6.2873    0.0000 O   0  0  0  0  0  0  0  0  0  0  0  0
   10.3312   -4.2873    0.0000 O   0  0  0  0  0  0  0  0  0  0  0  0
    2.5369   -4.7873    0.0000 O   0  0  0  0  0  0  0  0  0  0  0  0
    6.0577    7.2852    0.0000 O   0  0  0  0  0  0  0  0  0  0  0  0
    8.6230   -1.2248    0.0000 O   0  0  0  0  0  0  0  0  0  0  0  0
    6.0308    0.2852    0.0000 O   0  0  0  0  0  0  0  0  0  0  0  0
    5.1208   -1.2081    0.0000 O   0  0  0  0  0  0  0  0  0  0  0  0
   12.0910   -0.2381    0.0000 O   0  0  0  0  0  0  0  0  0  0  0  0
   10.3705    2.7685    0.0000 O   0  0  0  0  0  0  0  0  0  0  0  0
   12.0987    1.7619    0.0000 O   0  0  0  0  0  0  0  0  0  0  0  0
    6.9064    2.7819    0.0000 C   0  0  3  0  0  0  0  0  0  0  0  0
    6.0010   -5.7873    0.0000 C   0  0  3  0  0  0  0  0  0  0  0  0
    5.1350   -6.2873    0.0000 C   0  0  3  0  0  0  0  0  0  0  0  0
    6.0423    3.2852    0.0000 C   0  0  3  0  0  0  0  0  0  0  0  0
    4.2690   -5.7873    0.0000 C   0  0  3  0  0  0  0  0  0  0  0  0
    7.7782    4.2785    0.0000 C   0  0  3  0  0  0  0  0  0  0  0  0
    5.1744    2.7886    0.0000 C   0  0  3  0  0  0  0  0  0  0  0  0
    7.7331   -5.7873    0.0000 C   0  0  3  0  0  0  0  0  0  0  0  0
    8.6462    4.7752    0.0000 C   0  0  3  0  0  0  0  0  0  0  0  0
    6.0010   -4.7873    0.0000 C   0  0  3  0  0  0  0  0  0  0  0  0
    6.9026    1.7819    0.0000 C   0  0  3  0  0  0  0  0  0  0  0  0
    8.6500    5.7752    0.0000 C   0  0  3  0  0  0  0  0  0  0  0  0
    8.5991   -6.2873    0.0000 C   0  0  3  0  0  0  0  0  0  0  0  0
    4.2690   -4.7873    0.0000 C   0  0  3  0  0  0  0  0  0  0  0  0
    5.1705    1.7886    0.0000 C   0  0  3  0  0  0  0  0  0  0  0  0
    7.7859    6.2785    0.0000 C   0  0  3  0  0  0  0  0  0  0  0  0
    9.4651   -5.7873    0.0000 C   0  0  3  0  0  0  0  0  0  0  0  0
    6.9180    5.7819    0.0000 C   0  0  3  0  0  0  0  0  0  0  0  0
    9.4651   -4.7873    0.0000 C   0  0  3  0  0  0  0  0  0  0  0  0
    8.5991   -4.2873    0.0000 C   0  0  3  0  0  0  0  0  0  0  0  0
    3.4030   -4.2873    0.0000 C   0  0  0  0  0  0  0  0  0  0  0  0
    4.3026    1.2919    0.0000 C   0  0  0  0  0  0  0  0  0  0  0  0
    6.0539    6.2852    0.0000 C   0  0  0  0  0  0  0  0  0  0  0  0
    8.5991   -3.2873    0.0000 C   0  0  0  0  0  0  0  0  0  0  0  0
    7.7628    0.2786    0.0000 C   0  0  0  0  0  0  0  0  0  0  0  0
    6.8671   -3.2873    0.0000 C   0  0  0  0  0  0  0  0  0  0  0  0
    6.8948   -0.2181    0.0000 C   0  0  0  0  0  0  0  0  0  0  0  0
    6.8910   -1.2181    0.0000 C   0  0  0  0  0  0  0  0  0  0  0  0
    8.6269   -0.2248    0.0000 C   0  0  0  0  0  0  0  0  0  0  0  0
    7.7671   -2.7630    0.0000 C   0  0  0  0  0  0  0  0  0  0  0  0
    7.7551   -1.7214    0.0000 C   0  0  0  0  0  0  0  0  0  0  0  0
    5.9670   -2.7630    0.0000 C   0  0  0  0  0  0  0  0  0  0  0  0
    5.9790   -1.7214    0.0000 C   0  0  0  0  0  0  0  0  0  0  0  0
    9.4948    0.2719    0.0000 C   0  0  0  0  0  0  0  0  0  0  0  0
    9.4987    1.2719    0.0000 C   0  0  0  0  0  0  0  0  0  0  0  0
   10.3589   -0.2314    0.0000 C   0  0  0  0  0  0  0  0  0  0  0  0
   11.2269    0.2652    0.0000 C   0  0  0  0  0  0  0  0  0  0  0  0
   10.3666    1.7686    0.0000 C   0  0  0  0  0  0  0  0  0  0  0  0
   11.2307    1.2652    0.0000 C   0  0  0  0  0  0  0  0  0  0  0  0
    6.9088    3.4019    0.0000 H   0  0  0  0  0  0  0  0  0  0  0  0
    6.0010   -6.4073    0.0000 H   0  0  0  0  0  0  0  0  0  0  0  0
    4.5981   -6.5973    0.0000 H   0  0  0  0  0  0  0  0  0  0  0  0
    5.5066    3.5973    0.0000 H   0  0  0  0  0  0  0  0  0  0  0  0
    4.2690   -6.4073    0.0000 H   0  0  0  0  0  0  0  0  0  0  0  0
    7.2401    3.9706    0.0000 H   0  0  0  0  0  0  0  0  0  0  0  0
    5.1768    3.4086    0.0000 H   0  0  0  0  0  0  0  0  0  0  0  0
    7.1962   -5.4773    0.0000 H   0  0  0  0  0  0  0  0  0  0  0  0
    9.1843    5.0831    0.0000 H   0  0  0  0  0  0  0  0  0  0  0  0
    6.0010   -4.1673    0.0000 H   0  0  0  0  0  0  0  0  0  0  0  0
    7.4407    2.0898    0.0000 H   0  0  0  0  0  0  0  0  0  0  0  0
    9.1858    5.4631    0.0000 H   0  0  0  0  0  0  0  0  0  0  0  0
    8.0622   -6.5973    0.0000 H   0  0  0  0  0  0  0  0  0  0  0  0
    4.2690   -4.1673    0.0000 H   0  0  0  0  0  0  0  0  0  0  0  0
    5.1681    1.1686    0.0000 H   0  0  0  0  0  0  0  0  0  0  0  0
    8.3240    6.5865    0.0000 H   0  0  0  0  0  0  0  0  0  0  0  0
    9.4651   -6.4073    0.0000 H   0  0  0  0  0  0  0  0  0  0  0  0
    6.3798    5.4739    0.0000 H   0  0  0  0  0  0  0  0  0  0  0  0
   10.0021   -5.0973    0.0000 H   0  0  0  0  0  0  0  0  0  0  0  0
    8.0622   -3.9773    0.0000 H   0  0  0  0  0  0  0  0  0  0  0  0
    3.8015   -3.8123    0.0000 H   0  0  0  0  0  0  0  0  0  0  0  0
    3.0044   -3.8123    0.0000 H   0  0  0  0  0  0  0  0  0  0  0  0
    3.9946    1.8300    0.0000 H   0  0  0  0  0  0  0  0  0  0  0  0
    3.7644    0.9840    0.0000 H   0  0  0  0  0  0  0  0  0  0  0  0
    4.6105    0.7538    0.0000 H   0  0  0  0  0  0  0  0  0  0  0  0
    5.4437    6.3952    0.0000 H   0  0  0  0  0  0  0  0  0  0  0  0
    5.8396    5.7034    0.0000 H   0  0  0  0  0  0  0  0  0  0  0  0
    9.2191   -3.2873    0.0000 H   0  0  0  0  0  0  0  0  0  0  0  0
    8.5991   -2.6673    0.0000 H   0  0  0  0  0  0  0  0  0  0  0  0
    7.9791   -3.2873    0.0000 H   0  0  0  0  0  0  0  0  0  0  0  0
    4.5981   -7.5973    0.0000 H   0  0  0  0  0  0  0  0  0  0  0  0
    5.5104    4.5973    0.0000 H   0  0  0  0  0  0  0  0  0  0  0  0
    3.4030   -6.9073    0.0000 H   0  0  0  0  0  0  0  0  0  0  0  0
    3.7722    2.9840    0.0000 H   0  0  0  0  0  0  0  0  0  0  0  0
   10.0484    4.5798    0.0000 H   0  0  0  0  0  0  0  0  0  0  0  0
    9.5204    6.8918    0.0000 H   0  0  0  0  0  0  0  0  0  0  0  0
    9.1360   -7.5973    0.0000 H   0  0  0  0  0  0  0  0  0  0  0  0
    7.2540    7.5906    0.0000 H   0  0  0  0  0  0  0  0  0  0  0  0
   10.8681   -5.9773    0.0000 H   0  0  0  0  0  0  0  0  0  0  0  0
   10.8681   -4.5973    0.0000 H   0  0  0  0  0  0  0  0  0  0  0  0
    2.0000   -4.4773    0.0000 H   0  0  0  0  0  0  0  0  0  0  0  0
    8.3064   -3.0688    0.0000 H   0  0  0  0  0  0  0  0  0  0  0  0
    5.5220    7.5973    0.0000 H   0  0  0  0  0  0  0  0  0  0  0  0
    5.4277   -3.0688    0.0000 H   0  0  0  0  0  0  0  0  0  0  0  0
    8.9630    1.5840    0.0000 H   0  0  0  0  0  0  0  0  0  0  0  0
   10.3565   -0.8514    0.0000 H   0  0  0  0  0  0  0  0  0  0  0  0
    4.5792   -1.5098    0.0000 H   0  0  0  0  0  0  0  0  0  0  0  0
   12.0886   -0.8581    0.0000 H   0  0  0  0  0  0  0  0  0  0  0  0
   10.9086    3.0765    0.0000 H   0  0  0  0  0  0  0  0  0  0  0  0
   12.6344    1.4498    0.0000 H   0  0  0  0  0  0  0  0  0  0  0  0
  1 27  1  0  0  0  0
  1 32  1  0  0  0  0
  2 28  1  0  0  0  0
  2 34  1  0  0  0  0
  3 36  1  0  0  0  0
  3 40  1  0  0  0  0
  4 32  1  0  0  0  0
  4 44  1  0  0  0  0
  5 37  1  0  0  0  0
  5 41  1  0  0  0  0
  6 34  1  0  0  0  0
  6 46  1  0  0  0  0
  7 37  1  0  0  0  0
  7 51  1  0  0  0  0
  8 36  1  0  0  0  0
  8 52  1  0  0  0  0
  9 29  1  0  0  0  0
  9 96  1  0  0  0  0
 10 30  1  0  0  0  0
 10 97  1  0  0  0  0
 11 31  1  0  0  0  0
 11 98  1  0  0  0  0
 12 33  1  0  0  0  0
 12 99  1  0  0  0  0
 13 35  1  0  0  0  0
 13100  1  0  0  0  0
 14 38  1  0  0  0  0
 14101  1  0  0  0  0
 15 39  1  0  0  0  0
 15102  1  0  0  0  0
 16 42  1  0  0  0  0
 16103  1  0  0  0  0
 17 43  1  0  0  0  0
 17104  1  0  0  0  0
 18 45  1  0  0  0  0
 18105  1  0  0  0  0
 19 47  1  0  0  0  0
 19106  1  0  0  0  0
 20 49  1  0  0  0  0
 20108  1  0  0  0  0
 21 55  1  0  0  0  0
 21 57  1  0  0  0  0
 22 53  2  0  0  0  0
 23 59  1  0  0  0  0
 23112  1  0  0  0  0
 24 63  1  0  0  0  0
 24113  1  0  0  0  0
 25 64  1  0  0  0  0
 25114  1  0  0  0  0
 26 65  1  0  0  0  0
 26115  1  0  0  0  0
 27 30  1  0  0  0  0
 27 37  1  0  0  0  0
 27 66  1  0  0  0  0
 28 29  1  0  0  0  0
 28 36  1  0  0  0  0
 28 67  1  0  0  0  0
 29 31  1  0  0  0  0
 29 68  1  0  0  0  0
 30 33  1  0  0  0  0
 30 69  1  0  0  0  0
 31 40  1  0  0  0  0
 31 70  1  0  0  0  0
 32 35  1  0  0  0  0
 32 71  1  0  0  0  0
 33 41  1  0  0  0  0
 33 72  1  0  0  0  0
 34 39  1  0  0  0  0
 34 73  1  0  0  0  0
 35 38  1  0  0  0  0
 35 74  1  0  0  0  0
 36 75  1  0  0  0  0
 37 76  1  0  0  0  0
 38 42  1  0  0  0  0
 38 77  1  0  0  0  0
 39 43  1  0  0  0  0
 39 78  1  0  0  0  0
 40 47  1  0  0  0  0
 40 79  1  0  0  0  0
 41 48  1  0  0  0  0
 41 80  1  0  0  0  0
 42 44  1  0  0  0  0
 42 81  1  0  0  0  0
 43 45  1  0  0  0  0
 43 82  1  0  0  0  0
 44 49  1  0  0  0  0
 44 83  1  0  0  0  0
 45 46  1  0  0  0  0
 45 84  1  0  0  0  0
 46 50  1  0  0  0  0
 46 85  1  0  0  0  0
 47 86  1  0  0  0  0
 47 87  1  0  0  0  0
 48 88  1  0  0  0  0
 48 89  1  0  0  0  0
 48 90  1  0  0  0  0
 49 91  1  0  0  0  0
 49 92  1  0  0  0  0
 50 93  1  0  0  0  0
 50 94  1  0  0  0  0
 50 95  1  0  0  0  0
 51 53  1  0  0  0  0
 51 55  2  0  0  0  0
 52 56  1  0  0  0  0
 52 58  2  0  0  0  0
 53 54  1  0  0  0  0
 54 57  1  0  0  0  0
 54 59  2  0  0  0  0
 55 60  1  0  0  0  0
 56 57  2  0  0  0  0
 56107  1  0  0  0  0
 58 59  1  0  0  0  0
 58109  1  0  0  0  0
 60 61  2  0  0  0  0
 60 62  1  0  0  0  0
 61 64  1  0  0  0  0
 61110  1  0  0  0  0
 62 63  2  0  0  0  0
 62111  1  0  0  0  0
 63 65  1  0  0  0  0
 64 65  2  0  0  0  0
M  END
> <PUBCHEM_COMPOUND_CID>
131752474

> <PUBCHEM_COMPOUND_CANONICALIZED>
1

> <PUBCHEM_CACTVS_COMPLEXITY>
1630

> <PUBCHEM_CACTVS_HBOND_ACCEPTOR>
26

> <PUBCHEM_CACTVS_HBOND_DONOR>
16

> <PUBCHEM_CACTVS_ROTATABLE_BOND>
11

> <PUBCHEM_CACTVS_SUBSKEYS>
AAADcfB8PgAAAAAAAAAAAAAAAAAAAAAAAAA0aJEiAAAAAACBQAAAGgAACAAADBSwmAMyDoAABgCIAqBSAAICCAAkIAAAiAFGiMgdNzaGNR6ieWGl4BUPuQfI7LzOIAABCAAIQABAAAIQABCAAAAAAAAAAA==

> <PUBCHEM_IUPAC_OPENEYE_NAME>
7-[4,5-dihydroxy-6-(hydroxymethyl)-3-(3,4,5-trihydroxy-6-methyl-tetrahydropyran-2-yl)oxy-tetrahydropyran-2-yl]oxy-3-[4,5-dihydroxy-6-methyl-3-[3,4,5-trihydroxy-6-(hydroxymethyl)tetrahydropyran-2-yl]oxy-tetrahydropyran-2-yl]oxy-5-hydroxy-2-(3,4,5-trihydroxyphenyl)chromen-4-one

> <PUBCHEM_IUPAC_CAS_NAME>
7-[[4,5-dihydroxy-6-(hydroxymethyl)-3-[(3,4,5-trihydroxy-6-methyl-2-oxanyl)oxy]-2-oxanyl]oxy]-3-[[4,5-dihydroxy-6-methyl-3-[[3,4,5-trihydroxy-6-(hydroxymethyl)-2-oxanyl]oxy]-2-oxanyl]oxy]-5-hydroxy-2-(3,4,5-trihydroxyphenyl)-1-benzopyran-4-one

> <PUBCHEM_IUPAC_NAME_MARKUP>
7-[4,5-dihydroxy-6-(hydroxymethyl)-3-(3,4,5-trihydroxy-6-methyloxan-2-yl)oxyoxan-2-yl]oxy-3-[4,5-dihydroxy-6-methyl-3-[3,4,5-trihydroxy-6-(hydroxymethyl)oxan-2-yl]oxyoxan-2-yl]oxy-5-hydroxy-2-(3,4,5-trihydroxyphenyl)chromen-4-one

> <PUBCHEM_IUPAC_NAME>
7-[4,5-dihydroxy-6-(hydroxymethyl)-3-(3,4,5-trihydroxy-6-methyloxan-2-yl)oxyoxan-2-yl]oxy-3-[4,5-dihydroxy-6-methyl-3-[3,4,5-trihydroxy-6-(hydroxymethyl)oxan-2-yl]oxyoxan-2-yl]oxy-5-hydroxy-2-(3,4,5-trihydroxyphenyl)chromen-4-one

> <PUBCHEM_IUPAC_SYSTEMATIC_NAME>
7-[6-(hydroxymethyl)-3-[6-methyl-3,4,5-tris(oxidanyl)oxan-2-yl]oxy-4,5-bis(oxidanyl)oxan-2-yl]oxy-3-[3-[6-(hydroxymethyl)-3,4,5-tris(oxidanyl)oxan-2-yl]oxy-6-methyl-4,5-bis(oxidanyl)oxan-2-yl]oxy-5-oxidanyl-2-[3,4,5-tris(oxidanyl)phenyl]chromen-4-one

> <PUBCHEM_IUPAC_TRADITIONAL_NAME>
7-[4,5-dihydroxy-6-methylol-3-(3,4,5-trihydroxy-6-methyl-tetrahydropyran-2-yl)oxy-tetrahydropyran-2-yl]oxy-3-[4,5-dihydroxy-6-methyl-3-(3,4,5-trihydroxy-6-methylol-tetrahydropyran-2-yl)oxy-tetrahydropyran-2-yl]oxy-5-hydroxy-2-(3,4,5-trihydroxyphenyl)chromone

> <PUBCHEM_IUPAC_INCHI>
InChI=1S/C39H50O26/c1-9-20(45)26(51)30(55)36(57-9)64-35-29(54)24(49)18(8-41)62-39(35)59-12-5-13(42)19-16(6-12)60-32(11-3-14(43)22(47)15(44)4-11)33(25(19)50)63-38-34(28(53)21(46)10(2)58-38)65-37-31(56)27(52)23(48)17(7-40)61-37/h3-6,9-10,17-18,20-21,23-24,26-31,34-49,51-56H,7-8H2,1-2H3

> <PUBCHEM_IUPAC_INCHIKEY>
MDVBIZMWGMCMKQ-UHFFFAOYSA-N

> <PUBCHEM_XLOGP3_AA>
-4

> <PUBCHEM_EXACT_MASS>
934.25903170

> <PUBCHEM_MOLECULAR_FORMULA>
C39H50O26

> <PUBCHEM_MOLECULAR_WEIGHT>
934.8

> <PUBCHEM_OPENEYE_CAN_SMILES>
CC1C(C(C(C(O1)OC2C(C(C(OC2OC3=CC(=C4C(=C3)OC(=C(C4=O)OC5C(C(C(C(O5)C)O)O)OC6C(C(C(C(O6)CO)O)O)O)C7=CC(=C(C(=C7)O)O)O)O)CO)O)O)O)O)O

> <PUBCHEM_OPENEYE_ISO_SMILES>
CC1C(C(C(C(O1)OC2C(C(C(OC2OC3=CC(=C4C(=C3)OC(=C(C4=O)OC5C(C(C(C(O5)C)O)O)OC6C(C(C(C(O6)CO)O)O)O)C7=CC(=C(C(=C7)O)O)O)O)CO)O)O)O)O)O

> <PUBCHEM_CACTVS_TPSA>
424

> <PUBCHEM_MONOISOTOPIC_WEIGHT>
934.25903170

> <PUBCHEM_TOTAL_CHARGE>
0

> <PUBCHEM_HEAVY_ATOM_COUNT>
65

> <PUBCHEM_ATOM_DEF_STEREO_COUNT>
0

> <PUBCHEM_ATOM_UDEF_STEREO_COUNT>
20

> <PUBCHEM_BOND_DEF_STEREO_COUNT>
0

> <PUBCHEM_BOND_UDEF_STEREO_COUNT>
0

> <PUBCHEM_ISOTOPIC_ATOM_COUNT>
0

> <PUBCHEM_COMPONENT_COUNT>
1

> <PUBCHEM_CACTVS_TAUTO_COUNT>
-1

> <PUBCHEM_COORDINATE_TYPE>
1
5
255

> <PUBCHEM_BONDANNOTATIONS>
27  1  3
32  1  3
30  10  3
31  11  3
33  12  3
35  13  3
38  14  3
39  15  3
42  16  3
43  17  3
45  18  3
28  2  3
34  2  3
21  55  8
21  57  8
40  47  3
41  48  3
44  49  3
46  50  3
51  53  8
51  55  8
52  56  8
52  58  8
53  54  8
54  57  8
54  59  8
56  57  8
58  59  8
60  61  8
60  62  8
61  64  8
62  63  8
63  65  8
64  65  8
37  7  3
36  8  3
29  9  3

$$$$
