44259099
  -OEChem-02182403552D

 73 77  0     1  0  0  0  0  0999 V2000
    6.8671   -1.7857    0.0000 O   0  0  0  0  0  0  0  0  0  0  0  0
    5.1350    0.2143    0.0000 O   0  0  0  0  0  0  0  0  0  0  0  0
    6.0010   -3.2857    0.0000 O   0  0  0  0  0  0  0  0  0  0  0  0
    6.8671    0.2143    0.0000 O   0  0  0  0  0  0  0  0  0  0  0  0
    5.1350   -2.7857    0.0000 O   0  0  0  0  0  0  0  0  0  0  0  0
    3.4030   -1.7857    0.0000 O   0  0  0  0  0  0  0  0  0  0  0  0
    8.5991   -2.7857    0.0000 O   0  0  0  0  0  0  0  0  0  0  0  0
    8.5991   -4.7857    0.0000 O   0  0  0  0  0  0  0  0  0  0  0  0
    6.8671   -5.7857    0.0000 O   0  0  0  0  0  0  0  0  0  0  0  0
    2.5369   -0.2857    0.0000 O   0  0  0  0  0  0  0  0  0  0  0  0
    7.7331    2.7143    0.0000 O   0  0  0  0  0  0  0  0  0  0  0  0
    5.1350    1.2143    0.0000 O   0  0  0  0  0  0  0  0  0  0  0  0
    4.2308    2.7112    0.0000 O   0  0  0  0  0  0  0  0  0  0  0  0
    5.9889    5.7836    0.0000 O   0  0  0  0  0  0  0  0  0  0  0  0
   11.1972    1.7143    0.0000 O   0  0  0  0  0  0  0  0  0  0  0  0
   11.1972   -0.2857    0.0000 O   0  0  0  0  0  0  0  0  0  0  0  0
    6.0010   -1.2857    0.0000 C   0  0  3  0  0  0  0  0  0  0  0  0
    5.1350   -1.7857    0.0000 C   0  0  3  0  0  0  0  0  0  0  0  0
    4.2690   -1.2857    0.0000 C   0  0  2  0  0  0  0  0  0  0  0  0
    6.8671   -2.7857    0.0000 C   0  0  2  0  0  0  0  0  0  0  0  0
    6.0010   -0.2857    0.0000 C   0  0  1  0  0  0  0  0  0  0  0  0
    7.7331   -3.2857    0.0000 C   0  0  2  0  0  0  0  0  0  0  0  0
    4.2690   -0.2857    0.0000 C   0  0  3  0  0  0  0  0  0  0  0  0
    7.7331   -4.2857    0.0000 C   0  0  3  0  0  0  0  0  0  0  0  0
    6.8671   -4.7857    0.0000 C   0  0  2  0  0  0  0  0  0  0  0  0
    6.0010   -4.2857    0.0000 C   0  0  3  0  0  0  0  0  0  0  0  0
    3.4030    0.2143    0.0000 C   0  0  0  0  0  0  0  0  0  0  0  0
    5.1350   -4.7857    0.0000 C   0  0  0  0  0  0  0  0  0  0  0  0
    6.8671    1.2143    0.0000 C   0  0  0  0  0  0  0  0  0  0  0  0
    7.7331    1.7143    0.0000 C   0  0  0  0  0  0  0  0  0  0  0  0
    6.0010    1.7143    0.0000 C   0  0  0  0  0  0  0  0  0  0  0  0
    6.0010    2.7143    0.0000 C   0  0  0  0  0  0  0  0  0  0  0  0
    8.5991    1.2143    0.0000 C   0  0  0  0  0  0  0  0  0  0  0  0
    6.8671    3.2143    0.0000 C   0  0  0  0  0  0  0  0  0  0  0  0
    5.0910    3.2212    0.0000 C   0  0  0  0  0  0  0  0  0  0  0  0
    6.8831    4.2558    0.0000 C   0  0  0  0  0  0  0  0  0  0  0  0
    9.4651    1.7143    0.0000 C   0  0  0  0  0  0  0  0  0  0  0  0
    8.5991    0.2143    0.0000 C   0  0  0  0  0  0  0  0  0  0  0  0
    5.0830    4.2628    0.0000 C   0  0  0  0  0  0  0  0  0  0  0  0
    5.9851    4.7836    0.0000 C   0  0  0  0  0  0  0  0  0  0  0  0
   10.3312    1.2143    0.0000 C   0  0  0  0  0  0  0  0  0  0  0  0
    9.4651   -0.2857    0.0000 C   0  0  0  0  0  0  0  0  0  0  0  0
   10.3312    0.2143    0.0000 C   0  0  0  0  0  0  0  0  0  0  0  0
    6.0010   -1.9057    0.0000 H   0  0  0  0  0  0  0  0  0  0  0  0
    4.5981   -2.0957    0.0000 H   0  0  0  0  0  0  0  0  0  0  0  0
    4.2690   -1.9057    0.0000 H   0  0  0  0  0  0  0  0  0  0  0  0
    7.4040   -2.4757    0.0000 H   0  0  0  0  0  0  0  0  0  0  0  0
    6.0010    0.3343    0.0000 H   0  0  0  0  0  0  0  0  0  0  0  0
    8.2700   -3.5957    0.0000 H   0  0  0  0  0  0  0  0  0  0  0  0
    4.2690    0.3343    0.0000 H   0  0  0  0  0  0  0  0  0  0  0  0
    7.7331   -4.9057    0.0000 H   0  0  0  0  0  0  0  0  0  0  0  0
    7.4040   -5.0957    0.0000 H   0  0  0  0  0  0  0  0  0  0  0  0
    5.4641   -3.9757    0.0000 H   0  0  0  0  0  0  0  0  0  0  0  0
    3.8015    0.6893    0.0000 H   0  0  0  0  0  0  0  0  0  0  0  0
    3.0044    0.6893    0.0000 H   0  0  0  0  0  0  0  0  0  0  0  0
    4.8250   -4.2487    0.0000 H   0  0  0  0  0  0  0  0  0  0  0  0
    4.5981   -5.0957    0.0000 H   0  0  0  0  0  0  0  0  0  0  0  0
    5.4450   -5.3226    0.0000 H   0  0  0  0  0  0  0  0  0  0  0  0
    4.5981   -3.0957    0.0000 H   0  0  0  0  0  0  0  0  0  0  0  0
    3.4030   -2.4057    0.0000 H   0  0  0  0  0  0  0  0  0  0  0  0
    9.1360   -3.0957    0.0000 H   0  0  0  0  0  0  0  0  0  0  0  0
    8.5991   -5.4057    0.0000 H   0  0  0  0  0  0  0  0  0  0  0  0
    6.3301   -6.0957    0.0000 H   0  0  0  0  0  0  0  0  0  0  0  0
    2.0000    0.0243    0.0000 H   0  0  0  0  0  0  0  0  0  0  0  0
    7.4236    4.5596    0.0000 H   0  0  0  0  0  0  0  0  0  0  0  0
    9.4651    2.3343    0.0000 H   0  0  0  0  0  0  0  0  0  0  0  0
    8.0622   -0.0957    0.0000 H   0  0  0  0  0  0  0  0  0  0  0  0
    4.5449    4.5707    0.0000 H   0  0  0  0  0  0  0  0  0  0  0  0
    9.4651   -0.9057    0.0000 H   0  0  0  0  0  0  0  0  0  0  0  0
    3.6904    3.0150    0.0000 H   0  0  0  0  0  0  0  0  0  0  0  0
    5.4532    6.0957    0.0000 H   0  0  0  0  0  0  0  0  0  0  0  0
   11.1972    2.3343    0.0000 H   0  0  0  0  0  0  0  0  0  0  0  0
   11.1972   -0.9057    0.0000 H   0  0  0  0  0  0  0  0  0  0  0  0
  1 17  1  0  0  0  0
 20  1  1  1  0  0  0
  2 21  1  0  0  0  0
  2 23  1  0  0  0  0
  3 20  1  0  0  0  0
  3 26  1  0  0  0  0
 21  4  1  1  0  0  0
  4 29  1  0  0  0  0
  5 18  1  0  0  0  0
  5 59  1  0  0  0  0
 19  6  1  1  0  0  0
  6 60  1  0  0  0  0
 22  7  1  1  0  0  0
  7 61  1  0  0  0  0
  8 24  1  0  0  0  0
  8 62  1  0  0  0  0
 25  9  1  1  0  0  0
  9 63  1  0  0  0  0
 10 27  1  0  0  0  0
 10 64  1  0  0  0  0
 11 30  1  0  0  0  0
 11 34  1  0  0  0  0
 12 31  2  0  0  0  0
 13 35  1  0  0  0  0
 13 70  1  0  0  0  0
 14 40  1  0  0  0  0
 14 71  1  0  0  0  0
 15 41  1  0  0  0  0
 15 72  1  0  0  0  0
 16 43  1  0  0  0  0
 16 73  1  0  0  0  0
 17 18  1  0  0  0  0
 17 21  1  0  0  0  0
 17 44  1  0  0  0  0
 18 19  1  0  0  0  0
 18 45  1  0  0  0  0
 19 23  1  0  0  0  0
 19 46  1  0  0  0  0
 20 22  1  0  0  0  0
 20 47  1  0  0  0  0
 21 48  1  0  0  0  0
 22 24  1  0  0  0  0
 22 49  1  0  0  0  0
 23 27  1  0  0  0  0
 23 50  1  0  0  0  0
 24 25  1  0  0  0  0
 24 51  1  0  0  0  0
 25 26  1  0  0  0  0
 25 52  1  0  0  0  0
 26 28  1  0  0  0  0
 26 53  1  0  0  0  0
 27 54  1  0  0  0  0
 27 55  1  0  0  0  0
 28 56  1  0  0  0  0
 28 57  1  0  0  0  0
 28 58  1  0  0  0  0
 29 30  2  0  0  0  0
 29 31  1  0  0  0  0
 30 33  1  0  0  0  0
 31 32  1  0  0  0  0
 32 34  1  0  0  0  0
 32 35  2  0  0  0  0
 33 37  2  0  0  0  0
 33 38  1  0  0  0  0
 34 36  2  0  0  0  0
 35 39  1  0  0  0  0
 36 40  1  0  0  0  0
 36 65  1  0  0  0  0
 37 41  1  0  0  0  0
 37 66  1  0  0  0  0
 38 42  2  0  0  0  0
 38 67  1  0  0  0  0
 39 40  2  0  0  0  0
 39 68  1  0  0  0  0
 41 43  2  0  0  0  0
 42 43  1  0  0  0  0
 42 69  1  0  0  0  0
M  END
> <PUBCHEM_COMPOUND_CID>
44259099

> <PUBCHEM_COMPOUND_CANONICALIZED>
1

> <PUBCHEM_CACTVS_COMPLEXITY>
1020

> <PUBCHEM_CACTVS_HBOND_ACCEPTOR>
16

> <PUBCHEM_CACTVS_HBOND_DONOR>
10

> <PUBCHEM_CACTVS_ROTATABLE_BOND>
6

> <PUBCHEM_CACTVS_SUBSKEYS>
AAADceB4PgAAAAAAAAAAAAAAAAAAAAAAAAA0aIECAAAAAACBQAAAGgAACAAADBSwmAMyDoAABgCIAqBSAAICCAAkIAAIiAFGiMgdNzaGNR6ieWGl4BUPuQfI7LzOIAABCAAIQABAAAIQABCAAAAAAAAAAA==

> <PUBCHEM_IUPAC_OPENEYE_NAME>
3-[(2S,5R)-4,5-dihydroxy-6-(hydroxymethyl)-3-[(2S,3S,5R)-3,4,5-trihydroxy-6-methyl-tetrahydropyran-2-yl]oxy-tetrahydropyran-2-yl]oxy-2-(3,4-dihydroxyphenyl)-5,7-dihydroxy-chromen-4-one

> <PUBCHEM_IUPAC_CAS_NAME>
3-[[(2S,5R)-4,5-dihydroxy-6-(hydroxymethyl)-3-[[(2S,3S,5R)-3,4,5-trihydroxy-6-methyl-2-oxanyl]oxy]-2-oxanyl]oxy]-2-(3,4-dihydroxyphenyl)-5,7-dihydroxy-1-benzopyran-4-one

> <PUBCHEM_IUPAC_NAME_MARKUP>
3-[(2<I>S</I>,5<I>R</I>)-4,5-dihydroxy-6-(hydroxymethyl)-3-[(2<I>S</I>,3<I>S</I>,5<I>R</I>)-3,4,5-trihydroxy-6-methyloxan-2-yl]oxyoxan-2-yl]oxy-2-(3,4-dihydroxyphenyl)-5,7-dihydroxychromen-4-one

> <PUBCHEM_IUPAC_NAME>
3-[(2S,5R)-4,5-dihydroxy-6-(hydroxymethyl)-3-[(2S,3S,5R)-3,4,5-trihydroxy-6-methyloxan-2-yl]oxyoxan-2-yl]oxy-2-(3,4-dihydroxyphenyl)-5,7-dihydroxychromen-4-one

> <PUBCHEM_IUPAC_SYSTEMATIC_NAME>
2-[3,4-bis(oxidanyl)phenyl]-3-[(2S,5R)-6-(hydroxymethyl)-3-[(2S,3S,5R)-6-methyl-3,4,5-tris(oxidanyl)oxan-2-yl]oxy-4,5-bis(oxidanyl)oxan-2-yl]oxy-5,7-bis(oxidanyl)chromen-4-one

> <PUBCHEM_IUPAC_TRADITIONAL_NAME>
3-[(2S,5R)-4,5-dihydroxy-6-methylol-3-[(2S,3S,5R)-3,4,5-trihydroxy-6-methyl-tetrahydropyran-2-yl]oxy-tetrahydropyran-2-yl]oxy-2-(3,4-dihydroxyphenyl)-5,7-dihydroxy-chromone

> <PUBCHEM_IUPAC_INCHI>
InChI=1S/C27H30O16/c1-8-17(33)20(36)22(38)26(39-8)43-25-21(37)18(34)15(7-28)41-27(25)42-24-19(35)16-13(32)5-10(29)6-14(16)40-23(24)9-2-3-11(30)12(31)4-9/h2-6,8,15,17-18,20-22,25-34,36-38H,7H2,1H3/t8?,15?,17-,18-,20?,21?,22-,25?,26-,27-/m0/s1

> <PUBCHEM_IUPAC_INCHIKEY>
FYBMGZSDYDNBFX-XHSJDRSYSA-N

> <PUBCHEM_XLOGP3_AA>
-0.7

> <PUBCHEM_EXACT_MASS>
610.15338487

> <PUBCHEM_MOLECULAR_FORMULA>
C27H30O16

> <PUBCHEM_MOLECULAR_WEIGHT>
610.5

> <PUBCHEM_OPENEYE_CAN_SMILES>
CC1C(C(C(C(O1)OC2C(C(C(OC2OC3=C(OC4=CC(=CC(=C4C3=O)O)O)C5=CC(=C(C=C5)O)O)CO)O)O)O)O)O

> <PUBCHEM_OPENEYE_ISO_SMILES>
CC1[C@@H](C([C@@H]([C@@H](O1)OC2[C@@H](OC([C@@H](C2O)O)CO)OC3=C(OC4=CC(=CC(=C4C3=O)O)O)C5=CC(=C(C=C5)O)O)O)O)O

> <PUBCHEM_CACTVS_TPSA>
266

> <PUBCHEM_MONOISOTOPIC_WEIGHT>
610.15338487

> <PUBCHEM_TOTAL_CHARGE>
0

> <PUBCHEM_HEAVY_ATOM_COUNT>
43

> <PUBCHEM_ATOM_DEF_STEREO_COUNT>
5

> <PUBCHEM_ATOM_UDEF_STEREO_COUNT>
5

> <PUBCHEM_BOND_DEF_STEREO_COUNT>
0

> <PUBCHEM_BOND_UDEF_STEREO_COUNT>
0

> <PUBCHEM_ISOTOPIC_ATOM_COUNT>
0

> <PUBCHEM_COMPONENT_COUNT>
1

> <PUBCHEM_CACTVS_TAUTO_COUNT>
-1

> <PUBCHEM_COORDINATE_TYPE>
1
5
255

> <PUBCHEM_BONDANNOTATIONS>
17  1  3
20  1  5
11  30  8
11  34  8
23  27  3
26  28  3
29  30  8
29  31  8
31  32  8
32  34  8
32  35  8
33  37  8
33  38  8
34  36  8
35  39  8
36  40  8
37  41  8
38  42  8
39  40  8
21  4  5
41  43  8
42  43  8
18  5  3
19  6  5
22  7  5
24  8  3
25  9  5

$$$$
