REMARK  Name = 107905
REMARK  11 active torsions:
REMARK  status: ('A' for Active; 'I' for Inactive)
REMARK    1  A    between atoms: O_2  and  C_11
REMARK    2  A    between atoms: O_2  and  C_23
REMARK    3  A    between atoms: O_3  and  C_17
REMARK    4  A    between atoms: O_4  and  C_22
REMARK    5  A    between atoms: O_5  and  C_24
REMARK    6  A    between atoms: O_7  and  C_26
REMARK    7  A    between atoms: O_8  and  C_30
REMARK    8  A    between atoms: O_9  and  C_31
REMARK    9  A    between atoms: O_10  and  C_32
REMARK   10  A    between atoms: C_12  and  C_16
REMARK   11  A    between atoms: C_23  and  C_27
REMARK                            x       y       z     vdW  Elec       q    Type
REMARK                         _______ _______ _______ _____ _____    ______ ____
ROOT
ATOM      1  O   UNL     1       6.068  -1.750   0.000  0.00  0.00    +0.000 OA
ATOM      2  C   UNL     1       6.934  -0.250   0.000  0.00  0.00    +0.000 C 
ATOM      3  C   UNL     1       6.934  -1.250   0.000  0.00  0.00    +0.000 C 
ATOM      4  C   UNL     1       6.068   0.250   0.000  0.00  0.00    +0.000 C 
ATOM      5  C   UNL     1       5.202  -0.250   0.000  0.00  0.00    +0.000 A 
ATOM      6  C   UNL     1       5.202  -1.250   0.000  0.00  0.00    +0.000 A 
ATOM      7  C   UNL     1       4.308   0.285   0.000  0.00  0.00    +0.000 A 
ATOM      8  C   UNL     1       4.308  -1.785   0.000  0.00  0.00    +0.000 A 
ATOM      9  C   UNL     1       3.402  -0.229   0.000  0.00  0.00    +0.000 A 
ATOM     10  C   UNL     1       3.402  -1.271   0.000  0.00  0.00    +0.000 A 
ENDROOT
BRANCH   3  11
ATOM     11  C   UNL     1       7.800  -1.750   0.000  0.00  0.00    +0.000 A 
ATOM     12  C   UNL     1       7.800  -2.750   0.000  0.00  0.00    +0.000 A 
ATOM     13  C   UNL     1       8.666  -1.250   0.000  0.00  0.00    +0.000 A 
ATOM     14  C   UNL     1       8.666  -3.250   0.000  0.00  0.00    +0.000 A 
ATOM     15  C   UNL     1       9.532  -1.750   0.000  0.00  0.00    +0.000 A 
ATOM     16  C   UNL     1       9.532  -2.750   0.000  0.00  0.00    +0.000 A 
BRANCH  14  17
ATOM     17  O   UNL     1       8.666  -4.250   0.000  0.00  0.00    +0.000 OA
ATOM     18  H   UNL     1       9.203  -4.560   0.000  0.00  0.00    +0.000 HD
ENDBRANCH  14  17
BRANCH  16  19
ATOM     19  O   UNL     1      10.398  -3.250   0.000  0.00  0.00    +0.000 OA
ATOM     20  H   UNL     1      10.935  -2.940   0.000  0.00  0.00    +0.000 HD
ENDBRANCH  16  19
ENDBRANCH   3  11
BRANCH   7  21
ATOM     21  O   UNL     1       4.320   1.285   0.000  0.00  0.00    +0.000 OA
ATOM     22  H   UNL     1       3.787   1.601   0.000  0.00  0.00    +0.000 HD
ENDBRANCH   7  21
BRANCH  10  23
ATOM     23  O   UNL     1       2.538  -1.774   0.000  0.00  0.00    +0.000 OA
ATOM     24  H   UNL     1       2.000  -1.466   0.000  0.00  0.00    +0.000 HD
ENDBRANCH  10  23
BRANCH   2  25
ATOM     25  O   UNL     1       7.800   0.250   0.000  0.00  0.00    +0.000 OA
BRANCH  25  27
ATOM     26  O   UNL     1       6.934   1.750   0.000  0.00  0.00    +0.000 OA
ATOM     27  C   UNL     1       7.800   1.250   0.000  0.00  0.00    +0.000 C 
BRANCH  27  28
ATOM     28  C   UNL     1       8.666   1.750   0.000  0.00  0.00    +0.000 A 
ATOM     29  C   UNL     1       8.666   2.750   0.000  0.00  0.00    +0.000 A 
ATOM     30  C   UNL     1       9.532   1.250   0.000  0.00  0.00    +0.000 A 
ATOM     31  C   UNL     1      10.398   1.750   0.000  0.00  0.00    +0.000 A 
ATOM     32  C   UNL     1       9.532   3.250   0.000  0.00  0.00    +0.000 A 
ATOM     33  C   UNL     1      10.398   2.750   0.000  0.00  0.00    +0.000 A 
BRANCH  31  34
ATOM     34  O   UNL     1      11.264   1.250   0.000  0.00  0.00    +0.000 OA
ATOM     35  H   UNL     1      11.801   1.560   0.000  0.00  0.00    +0.000 HD
ENDBRANCH  31  34
BRANCH  32  36
ATOM     36  O   UNL     1       9.532   4.250   0.000  0.00  0.00    +0.000 OA
ATOM     37  H   UNL     1       8.995   4.560   0.000  0.00  0.00    +0.000 HD
ENDBRANCH  32  36
BRANCH  33  38
ATOM     38  O   UNL     1      11.264   3.250   0.000  0.00  0.00    +0.000 OA
ATOM     39  H   UNL     1      11.264   3.870   0.000  0.00  0.00    +0.000 HD
ENDBRANCH  33  38
ENDBRANCH  27  28
ENDBRANCH  25  27
ENDBRANCH   2  25
TORSDOF 11
