REMARK  Name = 65064
REMARK  12 active torsions:
REMARK  status: ('A' for Active; 'I' for Inactive)
REMARK    1  A    between atoms: O_2  and  C_12
REMARK    2  A    between atoms: O_2  and  C_24
REMARK    3  A    between atoms: O_3  and  C_18
REMARK    4  A    between atoms: O_4  and  C_23
REMARK    5  A    between atoms: O_5  and  C_25
REMARK    6  A    between atoms: O_6  and  C_26
REMARK    7  A    between atoms: O_8  and  C_27
REMARK    8  A    between atoms: O_9  and  C_31
REMARK    9  A    between atoms: O_10  and  C_32
REMARK   10  A    between atoms: O_11  and  C_33
REMARK   11  A    between atoms: C_13  and  C_16
REMARK   12  A    between atoms: C_24  and  C_28
REMARK                            x       y       z     vdW  Elec       q    Type
REMARK                         _______ _______ _______ _____ _____    ______ ____
ROOT
ATOM      1  O   UNL     1       6.068  -1.750   0.000  0.00  0.00    +0.000 OA
ATOM      2  C   UNL     1       6.934  -0.250   0.000  0.00  0.00    +0.000 C 
ATOM      3  C   UNL     1       6.934  -1.250   0.000  0.00  0.00    +0.000 C 
ATOM      4  C   UNL     1       6.068   0.250   0.000  0.00  0.00    +0.000 C 
ATOM      5  C   UNL     1       5.202  -0.250   0.000  0.00  0.00    +0.000 A 
ATOM      6  C   UNL     1       5.202  -1.250   0.000  0.00  0.00    +0.000 A 
ATOM      7  C   UNL     1       4.308   0.285   0.000  0.00  0.00    +0.000 A 
ATOM      8  C   UNL     1       4.308  -1.785   0.000  0.00  0.00    +0.000 A 
ATOM      9  C   UNL     1       3.402  -0.229   0.000  0.00  0.00    +0.000 A 
ATOM     10  C   UNL     1       3.402  -1.271   0.000  0.00  0.00    +0.000 A 
ENDROOT
BRANCH   3  11
ATOM     11  C   UNL     1       7.800  -1.750   0.000  0.00  0.00    +0.000 A 
ATOM     12  C   UNL     1       7.800  -2.750   0.000  0.00  0.00    +0.000 A 
ATOM     13  C   UNL     1       8.666  -1.250   0.000  0.00  0.00    +0.000 A 
ATOM     14  C   UNL     1       9.532  -1.750   0.000  0.00  0.00    +0.000 A 
ATOM     15  C   UNL     1       8.666  -3.250   0.000  0.00  0.00    +0.000 A 
ATOM     16  C   UNL     1       9.532  -2.750   0.000  0.00  0.00    +0.000 A 
BRANCH  14  17
ATOM     17  O   UNL     1      10.398  -1.250   0.000  0.00  0.00    +0.000 OA
ATOM     18  H   UNL     1      10.935  -1.560   0.000  0.00  0.00    +0.000 HD
ENDBRANCH  14  17
BRANCH  15  19
ATOM     19  O   UNL     1       8.666  -4.250   0.000  0.00  0.00    +0.000 OA
ATOM     20  H   UNL     1       8.129  -4.560   0.000  0.00  0.00    +0.000 HD
ENDBRANCH  15  19
BRANCH  16  21
ATOM     21  O   UNL     1      10.398  -3.250   0.000  0.00  0.00    +0.000 OA
ATOM     22  H   UNL     1      10.398  -3.870   0.000  0.00  0.00    +0.000 HD
ENDBRANCH  16  21
ENDBRANCH   3  11
BRANCH   7  23
ATOM     23  O   UNL     1       4.320   1.285   0.000  0.00  0.00    +0.000 OA
ATOM     24  H   UNL     1       3.787   1.601   0.000  0.00  0.00    +0.000 HD
ENDBRANCH   7  23
BRANCH  10  25
ATOM     25  O   UNL     1       2.538  -1.774   0.000  0.00  0.00    +0.000 OA
ATOM     26  H   UNL     1       2.000  -1.466   0.000  0.00  0.00    +0.000 HD
ENDBRANCH  10  25
BRANCH   2  27
ATOM     27  O   UNL     1       7.800   0.250   0.000  0.00  0.00    +0.000 OA
BRANCH  27  29
ATOM     28  O   UNL     1       6.934   1.750   0.000  0.00  0.00    +0.000 OA
ATOM     29  C   UNL     1       7.800   1.250   0.000  0.00  0.00    +0.000 C 
BRANCH  29  30
ATOM     30  C   UNL     1       8.666   1.750   0.000  0.00  0.00    +0.000 A 
ATOM     31  C   UNL     1       8.666   2.750   0.000  0.00  0.00    +0.000 A 
ATOM     32  C   UNL     1       9.532   1.250   0.000  0.00  0.00    +0.000 A 
ATOM     33  C   UNL     1      10.398   1.750   0.000  0.00  0.00    +0.000 A 
ATOM     34  C   UNL     1       9.532   3.250   0.000  0.00  0.00    +0.000 A 
ATOM     35  C   UNL     1      10.398   2.750   0.000  0.00  0.00    +0.000 A 
BRANCH  33  36
ATOM     36  O   UNL     1      11.264   1.250   0.000  0.00  0.00    +0.000 OA
ATOM     37  H   UNL     1      11.801   1.560   0.000  0.00  0.00    +0.000 HD
ENDBRANCH  33  36
BRANCH  34  38
ATOM     38  O   UNL     1       9.532   4.250   0.000  0.00  0.00    +0.000 OA
ATOM     39  H   UNL     1       8.995   4.560   0.000  0.00  0.00    +0.000 HD
ENDBRANCH  34  38
BRANCH  35  40
ATOM     40  O   UNL     1      11.264   3.250   0.000  0.00  0.00    +0.000 OA
ATOM     41  H   UNL     1      11.264   3.870   0.000  0.00  0.00    +0.000 HD
ENDBRANCH  35  40
ENDBRANCH  29  30
ENDBRANCH  27  29
ENDBRANCH   2  27
TORSDOF 12
