REMARK  Name = 72277
REMARK  7 active torsions:
REMARK  status: ('A' for Active; 'I' for Inactive)
REMARK    1  A    between atoms: O_2  and  C_8
REMARK    2  A    between atoms: O_3  and  C_14
REMARK    3  A    between atoms: O_4  and  C_19
REMARK    4  A    between atoms: O_5  and  C_20
REMARK    5  A    between atoms: O_6  and  C_21
REMARK    6  A    between atoms: O_7  and  C_22
REMARK    7  A    between atoms: C_9  and  C_12
REMARK                            x       y       z     vdW  Elec       q    Type
REMARK                         _______ _______ _______ _____ _____    ______ ____
ROOT
ATOM      1  O   UNL     1       6.068  -0.270   0.000  0.00  0.00    +0.000 OA
ATOM      2  C   UNL     1       6.934   1.230   0.000  0.00  0.00    +0.000 C 
ATOM      3  C   UNL     1       6.934   0.230   0.000  0.00  0.00    +0.000 C 
ATOM      4  C   UNL     1       6.068   1.730   0.000  0.00  0.00    +0.000 C 
ATOM      5  C   UNL     1       5.202   1.230   0.000  0.00  0.00    +0.000 A 
ATOM      6  C   UNL     1       5.202   0.230   0.000  0.00  0.00    +0.000 A 
ATOM      7  C   UNL     1       4.308   1.764   0.000  0.00  0.00    +0.000 A 
ATOM      8  C   UNL     1       4.308  -0.305   0.000  0.00  0.00    +0.000 A 
ATOM      9  C   UNL     1       3.402   1.250   0.000  0.00  0.00    +0.000 A 
ATOM     10  C   UNL     1       3.402   0.209   0.000  0.00  0.00    +0.000 A 
ENDROOT
BRANCH   3  11
ATOM     11  C   UNL     1       7.800  -0.270   0.000  0.00  0.00    +0.000 A 
ATOM     12  C   UNL     1       8.666   0.230   0.000  0.00  0.00    +0.000 A 
ATOM     13  C   UNL     1       7.800  -1.270   0.000  0.00  0.00    +0.000 A 
ATOM     14  C   UNL     1       8.666  -1.770   0.000  0.00  0.00    +0.000 A 
ATOM     15  C   UNL     1       9.532  -0.270   0.000  0.00  0.00    +0.000 A 
ATOM     16  C   UNL     1       9.532  -1.270   0.000  0.00  0.00    +0.000 A 
BRANCH  14  17
ATOM     17  O   UNL     1       8.666  -2.770   0.000  0.00  0.00    +0.000 OA
ATOM     18  H   UNL     1       8.129  -3.080   0.000  0.00  0.00    +0.000 HD
ENDBRANCH  14  17
BRANCH  15  19
ATOM     19  O   UNL     1      10.398   0.230   0.000  0.00  0.00    +0.000 OA
ATOM     20  H   UNL     1      10.398   0.850   0.000  0.00  0.00    +0.000 HD
ENDBRANCH  15  19
BRANCH  16  21
ATOM     21  O   UNL     1      10.398  -1.770   0.000  0.00  0.00    +0.000 OA
ATOM     22  H   UNL     1      10.398  -2.390   0.000  0.00  0.00    +0.000 HD
ENDBRANCH  16  21
ENDBRANCH   3  11
BRANCH   2  23
ATOM     23  O   UNL     1       7.800   1.730   0.000  0.00  0.00    +0.000 OA
ATOM     24  H   UNL     1       7.800   2.350   0.000  0.00  0.00    +0.000 HD
ENDBRANCH   2  23
BRANCH   7  25
ATOM     25  O   UNL     1       4.320   2.764   0.000  0.00  0.00    +0.000 OA
ATOM     26  H   UNL     1       3.787   3.080   0.000  0.00  0.00    +0.000 HD
ENDBRANCH   7  25
BRANCH  10  27
ATOM     27  O   UNL     1       2.538  -0.294   0.000  0.00  0.00    +0.000 OA
ATOM     28  H   UNL     1       2.000   0.013   0.000  0.00  0.00    +0.000 HD
ENDBRANCH  10  27
TORSDOF 7
