REMARK  Name = 5281643
REMARK  12 active torsions:
REMARK  status: ('A' for Active; 'I' for Inactive)
REMARK    1  A    between atoms: O_2  and  C_17
REMARK    2  A    between atoms: O_2  and  C_19
REMARK    3  A    between atoms: O_3  and  C_13
REMARK    4  A    between atoms: O_4  and  C_14
REMARK    5  A    between atoms: O_5  and  C_15
REMARK    6  A    between atoms: O_6  and  C_18
REMARK    7  A    between atoms: O_9  and  C_25
REMARK    8  A    between atoms: O_10  and  C_30
REMARK    9  A    between atoms: O_11  and  C_31
REMARK   10  A    between atoms: O_12  and  C_33
REMARK   11  A    between atoms: C_16  and  C_18
REMARK   12  A    between atoms: C_20  and  C_24
REMARK                            x       y       z     vdW  Elec       q    Type
REMARK                         _______ _______ _______ _____ _____    ______ ____
ROOT
ATOM      1  O   UNL     1       7.733   1.214   0.000  0.00  0.00    +0.000 OA
ATOM      2  O   UNL     1       5.135  -0.286   0.000  0.00  0.00    +0.000 OA
ATOM      3  C   UNL     1       6.867  -0.286   0.000  0.00  0.00    +0.000 A 
ATOM      4  C   UNL     1       7.733   0.214   0.000  0.00  0.00    +0.000 A 
ATOM      5  C   UNL     1       6.001   0.214   0.000  0.00  0.00    +0.000 A 
ATOM      6  C   UNL     1       6.001   1.214   0.000  0.00  0.00    +0.000 A 
ATOM      7  C   UNL     1       6.867   1.714   0.000  0.00  0.00    +0.000 A 
ATOM      8  C   UNL     1       5.091   1.721   0.000  0.00  0.00    +0.000 A 
ATOM      9  C   UNL     1       6.883   2.756   0.000  0.00  0.00    +0.000 A 
ATOM     10  C   UNL     1       5.083   2.763   0.000  0.00  0.00    +0.000 A 
ATOM     11  C   UNL     1       5.985   3.284   0.000  0.00  0.00    +0.000 A 
ENDROOT
BRANCH   4  12
ATOM     12  C   UNL     1       8.599  -0.286   0.000  0.00  0.00    +0.000 A 
ATOM     13  C   UNL     1       9.465   0.214   0.000  0.00  0.00    +0.000 A 
ATOM     14  C   UNL     1       8.599  -1.286   0.000  0.00  0.00    +0.000 A 
ATOM     15  C   UNL     1      10.331  -0.286   0.000  0.00  0.00    +0.000 A 
ATOM     16  C   UNL     1       9.465  -1.786   0.000  0.00  0.00    +0.000 A 
ATOM     17  C   UNL     1      10.331  -1.286   0.000  0.00  0.00    +0.000 A 
BRANCH  15  18
ATOM     18  O   UNL     1      11.197   0.214   0.000  0.00  0.00    +0.000 OA
ATOM     19  H   UNL     1      11.197   0.834   0.000  0.00  0.00    +0.000 HD
ENDBRANCH  15  18
BRANCH  17  20
ATOM     20  O   UNL     1      11.197  -1.786   0.000  0.00  0.00    +0.000 OA
ATOM     21  H   UNL     1      11.197  -2.406   0.000  0.00  0.00    +0.000 HD
ENDBRANCH  17  20
ENDBRANCH   4  12
BRANCH   8  22
ATOM     22  O   UNL     1       4.231   1.211   0.000  0.00  0.00    +0.000 OA
ATOM     23  H   UNL     1       3.690   1.515   0.000  0.00  0.00    +0.000 HD
ENDBRANCH   8  22
BRANCH  11  24
ATOM     24  O   UNL     1       5.989   4.284   0.000  0.00  0.00    +0.000 OA
ATOM     25  H   UNL     1       5.453   4.596   0.000  0.00  0.00    +0.000 HD
ENDBRANCH  11  24
BRANCH   3  26
ATOM     26  O   UNL     1       6.867  -1.286   0.000  0.00  0.00    +0.000 OA
BRANCH  26  32
ATOM     27  O   UNL     1       5.135  -1.286   0.000  0.00  0.00    +0.000 OA
ATOM     28  C   UNL     1       5.135  -3.286   0.000  0.00  0.00    +0.000 C 
ATOM     29  C   UNL     1       4.269  -2.786   0.000  0.00  0.00    +0.000 C 
ATOM     30  C   UNL     1       6.001  -2.786   0.000  0.00  0.00    +0.000 C 
ATOM     31  C   UNL     1       4.269  -1.786   0.000  0.00  0.00    +0.000 C 
ATOM     32  C   UNL     1       6.001  -1.786   0.000  0.00  0.00    +0.000 C 
BRANCH  28  33
ATOM     33  O   UNL     1       5.135  -4.286   0.000  0.00  0.00    +0.000 OA
ATOM     34  H   UNL     1       4.598  -4.596   0.000  0.00  0.00    +0.000 HD
ENDBRANCH  28  33
BRANCH  29  35
ATOM     35  O   UNL     1       3.403  -3.286   0.000  0.00  0.00    +0.000 OA
ATOM     36  H   UNL     1       3.403  -3.906   0.000  0.00  0.00    +0.000 HD
ENDBRANCH  29  35
BRANCH  30  37
ATOM     37  O   UNL     1       6.867  -3.286   0.000  0.00  0.00    +0.000 OA
ATOM     38  H   UNL     1       6.867  -3.906   0.000  0.00  0.00    +0.000 HD
ENDBRANCH  30  37
BRANCH  31  39
ATOM     39  C   UNL     1       3.403  -1.286   0.000  0.00  0.00    +0.000 C 
BRANCH  39  40
ATOM     40  O   UNL     1       2.537  -1.786   0.000  0.00  0.00    +0.000 OA
ATOM     41  H   UNL     1       2.000  -1.476   0.000  0.00  0.00    +0.000 HD
ENDBRANCH  39  40
ENDBRANCH  31  39
ENDBRANCH  26  32
ENDBRANCH   3  26
TORSDOF 12
