REMARK  Name = 5489470
REMARK  16 active torsions:
REMARK  status: ('A' for Active; 'I' for Inactive)
REMARK    1  A    between atoms: O_1  and  C_16
REMARK    2  A    between atoms: O_1  and  C_18
REMARK    3  A    between atoms: O_4  and  C_22
REMARK    4  A    between atoms: O_4  and  C_28
REMARK    5  A    between atoms: O_5  and  C_17
REMARK    6  A    between atoms: O_6  and  C_19
REMARK    7  A    between atoms: O_7  and  C_20
REMARK    8  A    between atoms: O_8  and  C_21
REMARK    9  A    between atoms: O_9  and  C_23
REMARK   10  A    between atoms: O_10  and  C_26
REMARK   11  A    between atoms: O_13  and  C_34
REMARK   12  A    between atoms: O_14  and  C_39
REMARK   13  A    between atoms: O_15  and  C_42
REMARK   14  A    between atoms: C_24  and  C_27
REMARK   15  A    between atoms: C_25  and  C_26
REMARK   16  A    between atoms: C_29  and  C_32
REMARK                            x       y       z     vdW  Elec       q    Type
REMARK                         _______ _______ _______ _____ _____    ______ ____
ROOT
ATOM      1  O   UNL     1       4.269   0.214   0.000  0.00  0.00    +0.000 OA
ATOM      2  C   UNL     1       5.135  -1.286   0.000  0.00  0.00    +0.000 C 
ATOM      3  C   UNL     1       4.269  -1.786   0.000  0.00  0.00    +0.000 C 
ATOM      4  C   UNL     1       3.403  -1.286   0.000  0.00  0.00    +0.000 C 
ATOM      5  C   UNL     1       5.135  -0.286   0.000  0.00  0.00    +0.000 C 
ATOM      6  C   UNL     1       3.403  -0.286   0.000  0.00  0.00    +0.000 C 
ATOM      7  C   UNL     1       2.537   0.214   0.000  0.00  0.00    +0.000 C 
ENDROOT
BRANCH   3   8
ATOM      8  O   UNL     1       4.269  -2.786   0.000  0.00  0.00    +0.000 OA
ATOM      9  H   UNL     1       3.732  -3.096   0.000  0.00  0.00    +0.000 HD
ENDBRANCH   3   8
BRANCH   4  10
ATOM     10  O   UNL     1       2.537  -1.786   0.000  0.00  0.00    +0.000 OA
ATOM     11  H   UNL     1       2.000  -1.476   0.000  0.00  0.00    +0.000 HD
ENDBRANCH   4  10
BRANCH   2  12
ATOM     12  O   UNL     1       6.001  -1.786   0.000  0.00  0.00    +0.000 OA
BRANCH  12  14
ATOM     13  O   UNL     1       5.135  -3.286   0.000  0.00  0.00    +0.000 OA
ATOM     14  C   UNL     1       6.001  -2.786   0.000  0.00  0.00    +0.000 C 
ATOM     15  C   UNL     1       6.867  -3.286   0.000  0.00  0.00    +0.000 C 
ATOM     16  C   UNL     1       6.867  -4.286   0.000  0.00  0.00    +0.000 C 
ATOM     17  C   UNL     1       6.001  -4.786   0.000  0.00  0.00    +0.000 C 
ATOM     18  C   UNL     1       5.135  -4.286   0.000  0.00  0.00    +0.000 C 
BRANCH  15  19
ATOM     19  O   UNL     1       7.733  -2.786   0.000  0.00  0.00    +0.000 OA
ATOM     20  H   UNL     1       8.270  -3.096   0.000  0.00  0.00    +0.000 HD
ENDBRANCH  15  19
BRANCH  16  21
ATOM     21  O   UNL     1       7.733  -4.786   0.000  0.00  0.00    +0.000 OA
ATOM     22  H   UNL     1       7.733  -5.406   0.000  0.00  0.00    +0.000 HD
ENDBRANCH  16  21
BRANCH  17  23
ATOM     23  O   UNL     1       6.001  -5.786   0.000  0.00  0.00    +0.000 OA
ATOM     24  H   UNL     1       5.464  -6.096   0.000  0.00  0.00    +0.000 HD
ENDBRANCH  17  23
BRANCH  18  25
ATOM     25  C   UNL     1       4.269  -4.786   0.000  0.00  0.00    +0.000 C 
BRANCH  25  26
ATOM     26  O   UNL     1       3.403  -4.286   0.000  0.00  0.00    +0.000 OA
ATOM     27  H   UNL     1       2.866  -4.596   0.000  0.00  0.00    +0.000 HD
ENDBRANCH  25  26
ENDBRANCH  18  25
ENDBRANCH  12  14
ENDBRANCH   2  12
BRANCH   5  28
ATOM     28  O   UNL     1       6.001   0.214   0.000  0.00  0.00    +0.000 OA
BRANCH  28  31
ATOM     29  O   UNL     1       6.867   2.714   0.000  0.00  0.00    +0.000 OA
ATOM     30  O   UNL     1       4.269   1.214   0.000  0.00  0.00    +0.000 OA
ATOM     31  C   UNL     1       6.001   1.214   0.000  0.00  0.00    +0.000 A 
ATOM     32  C   UNL     1       6.867   1.714   0.000  0.00  0.00    +0.000 A 
ATOM     33  C   UNL     1       5.135   1.714   0.000  0.00  0.00    +0.000 A 
ATOM     34  C   UNL     1       5.135   2.714   0.000  0.00  0.00    +0.000 A 
ATOM     35  C   UNL     1       6.001   3.214   0.000  0.00  0.00    +0.000 A 
ATOM     36  C   UNL     1       4.225   3.221   0.000  0.00  0.00    +0.000 A 
ATOM     37  C   UNL     1       6.017   4.256   0.000  0.00  0.00    +0.000 A 
ATOM     38  C   UNL     1       4.217   4.263   0.000  0.00  0.00    +0.000 A 
ATOM     39  C   UNL     1       5.119   4.784   0.000  0.00  0.00    +0.000 A 
BRANCH  32  40
ATOM     40  C   UNL     1       7.733   1.214   0.000  0.00  0.00    +0.000 A 
ATOM     41  C   UNL     1       7.733   0.214   0.000  0.00  0.00    +0.000 A 
ATOM     42  C   UNL     1       8.599   1.714   0.000  0.00  0.00    +0.000 A 
ATOM     43  C   UNL     1       8.599  -0.286   0.000  0.00  0.00    +0.000 A 
ATOM     44  C   UNL     1       9.465   1.214   0.000  0.00  0.00    +0.000 A 
ATOM     45  C   UNL     1       9.465   0.214   0.000  0.00  0.00    +0.000 A 
BRANCH  45  46
ATOM     46  O   UNL     1      10.331  -0.286   0.000  0.00  0.00    +0.000 OA
ATOM     47  H   UNL     1      10.868   0.024   0.000  0.00  0.00    +0.000 HD
ENDBRANCH  45  46
ENDBRANCH  32  40
BRANCH  36  48
ATOM     48  O   UNL     1       3.365   2.711   0.000  0.00  0.00    +0.000 OA
ATOM     49  H   UNL     1       2.824   3.015   0.000  0.00  0.00    +0.000 HD
ENDBRANCH  36  48
BRANCH  39  50
ATOM     50  O   UNL     1       5.123   5.784   0.000  0.00  0.00    +0.000 OA
ATOM     51  H   UNL     1       4.587   6.096   0.000  0.00  0.00    +0.000 HD
ENDBRANCH  39  50
ENDBRANCH  28  31
ENDBRANCH   5  28
TORSDOF 15
