REMARK  Name = 10010327
REMARK  22 active torsions:
REMARK  status: ('A' for Active; 'I' for Inactive)
REMARK    1  A    between atoms: O_1  and  C_21
REMARK    2  A    between atoms: O_1  and  C_26
REMARK    3  A    between atoms: O_4  and  C_24
REMARK    4  A    between atoms: O_4  and  C_34
REMARK    5  A    between atoms: O_6  and  C_22
REMARK    6  A    between atoms: O_7  and  C_23
REMARK    7  A    between atoms: O_8  and  C_27
REMARK    8  A    between atoms: O_9  and  C_28
REMARK    9  A    between atoms: O_10  and  C_29
REMARK   10  A    between atoms: O_11  and  C_32
REMARK   11  A    between atoms: O_12  and  C_33
REMARK   12  A    between atoms: O_13  and  C_36
REMARK   13  A    between atoms: O_13  and  C_39
REMARK   14  A    between atoms: O_14  and  C_35
REMARK   15  A    between atoms: O_15  and  C_38
REMARK   16  A    between atoms: O_18  and  C_45
REMARK   17  A    between atoms: O_19  and  C_50
REMARK   18  A    between atoms: O_20  and  C_53
REMARK   19  A    between atoms: C_25  and  C_37
REMARK   20  A    between atoms: C_30  and  C_34
REMARK   21  A    between atoms: C_31  and  C_38
REMARK   22  A    between atoms: C_40  and  C_43
REMARK                            x       y       z     vdW  Elec       q    Type
REMARK                         _______ _______ _______ _____ _____    ______ ____
ROOT
ATOM      1  O   UNL     1       8.599   1.595   0.000  0.00  0.00    +0.000 OA
ATOM      2  C   UNL     1       8.599   0.595   0.000  0.00  0.00    +0.000 C 
ATOM      3  C   UNL     1       9.465   0.095   0.000  0.00  0.00    +0.000 C 
ATOM      4  C   UNL     1      10.331   0.595   0.000  0.00  0.00    +0.000 C 
ATOM      5  C   UNL     1      10.331   1.595   0.000  0.00  0.00    +0.000 C 
ATOM      6  C   UNL     1       9.465   2.095   0.000  0.00  0.00    +0.000 C 
ENDROOT
BRANCH   3   7
ATOM      7  O   UNL     1       9.465  -0.905   0.000  0.00  0.00    +0.000 OA
ATOM      8  H   UNL     1       8.928  -1.215   0.000  0.00  0.00    +0.000 HD
ENDBRANCH   3   7
BRANCH   4   9
ATOM      9  O   UNL     1      11.197   0.095   0.000  0.00  0.00    +0.000 OA
ATOM     10  H   UNL     1      11.197  -0.525   0.000  0.00  0.00    +0.000 HD
ENDBRANCH   4   9
BRANCH   5  11
ATOM     11  O   UNL     1      11.197   2.095   0.000  0.00  0.00    +0.000 OA
ATOM     12  H   UNL     1      11.734   1.785   0.000  0.00  0.00    +0.000 HD
ENDBRANCH   5  11
BRANCH   6  13
ATOM     13  O   UNL     1       9.465   3.095   0.000  0.00  0.00    +0.000 OA
BRANCH  13  16
ATOM     14  O   UNL     1       7.733   5.095   0.000  0.00  0.00    +0.000 OA
ATOM     15  O   UNL     1       7.733   2.095   0.000  0.00  0.00    +0.000 OA
ATOM     16  C   UNL     1       8.599   3.595   0.000  0.00  0.00    +0.000 A 
ATOM     17  C   UNL     1       8.599   4.595   0.000  0.00  0.00    +0.000 A 
ATOM     18  C   UNL     1       7.733   3.095   0.000  0.00  0.00    +0.000 A 
ATOM     19  C   UNL     1       6.867   3.595   0.000  0.00  0.00    +0.000 A 
ATOM     20  C   UNL     1       6.867   4.595   0.000  0.00  0.00    +0.000 A 
ATOM     21  C   UNL     1       5.973   3.060   0.000  0.00  0.00    +0.000 A 
ATOM     22  C   UNL     1       5.973   5.130   0.000  0.00  0.00    +0.000 A 
ATOM     23  C   UNL     1       5.067   3.574   0.000  0.00  0.00    +0.000 A 
ATOM     24  C   UNL     1       5.067   4.616   0.000  0.00  0.00    +0.000 A 
BRANCH  17  25
ATOM     25  C   UNL     1       9.465   5.095   0.000  0.00  0.00    +0.000 A 
ATOM     26  C   UNL     1      10.331   4.595   0.000  0.00  0.00    +0.000 A 
ATOM     27  C   UNL     1       9.465   6.095   0.000  0.00  0.00    +0.000 A 
ATOM     28  C   UNL     1      11.197   5.095   0.000  0.00  0.00    +0.000 A 
ATOM     29  C   UNL     1      10.331   6.595   0.000  0.00  0.00    +0.000 A 
ATOM     30  C   UNL     1      11.197   6.095   0.000  0.00  0.00    +0.000 A 
BRANCH  30  31
ATOM     31  O   UNL     1      12.063   6.595   0.000  0.00  0.00    +0.000 OA
ATOM     32  H   UNL     1      12.063   7.215   0.000  0.00  0.00    +0.000 HD
ENDBRANCH  30  31
ENDBRANCH  17  25
BRANCH  21  33
ATOM     33  O   UNL     1       5.985   2.060   0.000  0.00  0.00    +0.000 OA
ATOM     34  H   UNL     1       5.451   1.744   0.000  0.00  0.00    +0.000 HD
ENDBRANCH  21  33
BRANCH  24  35
ATOM     35  O   UNL     1       4.203   5.119   0.000  0.00  0.00    +0.000 OA
ATOM     36  H   UNL     1       3.665   4.811   0.000  0.00  0.00    +0.000 HD
ENDBRANCH  24  35
ENDBRANCH  13  16
ENDBRANCH   6  13
BRANCH   2  37
ATOM     37  C   UNL     1       7.733   0.095   0.000  0.00  0.00    +0.000 C 
BRANCH  37  38
ATOM     38  O   UNL     1       7.733  -0.905   0.000  0.00  0.00    +0.000 OA
BRANCH  38  43
ATOM     39  O   UNL     1       6.001  -0.905   0.000  0.00  0.00    +0.000 OA
ATOM     40  C   UNL     1       6.001  -2.905   0.000  0.00  0.00    +0.000 C 
ATOM     41  C   UNL     1       6.867  -2.405   0.000  0.00  0.00    +0.000 C 
ATOM     42  C   UNL     1       5.135  -2.405   0.000  0.00  0.00    +0.000 C 
ATOM     43  C   UNL     1       6.867  -1.405   0.000  0.00  0.00    +0.000 C 
ATOM     44  C   UNL     1       5.135  -1.405   0.000  0.00  0.00    +0.000 C 
ATOM     45  C   UNL     1       4.269  -0.905   0.000  0.00  0.00    +0.000 C 
BRANCH  41  46
ATOM     46  O   UNL     1       7.733  -2.905   0.000  0.00  0.00    +0.000 OA
ATOM     47  H   UNL     1       8.270  -2.595   0.000  0.00  0.00    +0.000 HD
ENDBRANCH  41  46
BRANCH  42  48
ATOM     48  O   UNL     1       4.269  -2.905   0.000  0.00  0.00    +0.000 OA
ATOM     49  H   UNL     1       3.732  -2.595   0.000  0.00  0.00    +0.000 HD
ENDBRANCH  42  48
BRANCH  40  50
ATOM     50  O   UNL     1       6.001  -3.905   0.000  0.00  0.00    +0.000 OA
BRANCH  50  52
ATOM     51  O   UNL     1       4.269  -3.905   0.000  0.00  0.00    +0.000 OA
ATOM     52  C   UNL     1       5.135  -4.405   0.000  0.00  0.00    +0.000 C 
ATOM     53  C   UNL     1       5.135  -5.405   0.000  0.00  0.00    +0.000 C 
ATOM     54  C   UNL     1       4.269  -5.905   0.000  0.00  0.00    +0.000 C 
ATOM     55  C   UNL     1       3.403  -5.405   0.000  0.00  0.00    +0.000 C 
ATOM     56  C   UNL     1       3.403  -4.405   0.000  0.00  0.00    +0.000 C 
BRANCH  53  57
ATOM     57  O   UNL     1       6.001  -5.905   0.000  0.00  0.00    +0.000 OA
ATOM     58  H   UNL     1       6.001  -6.525   0.000  0.00  0.00    +0.000 HD
ENDBRANCH  53  57
BRANCH  54  59
ATOM     59  O   UNL     1       4.269  -6.905   0.000  0.00  0.00    +0.000 OA
ATOM     60  H   UNL     1       3.732  -7.215   0.000  0.00  0.00    +0.000 HD
ENDBRANCH  54  59
BRANCH  55  61
ATOM     61  O   UNL     1       2.537  -5.905   0.000  0.00  0.00    +0.000 OA
ATOM     62  H   UNL     1       2.000  -5.595   0.000  0.00  0.00    +0.000 HD
ENDBRANCH  55  61
BRANCH  56  63
ATOM     63  C   UNL     1       2.537  -3.905   0.000  0.00  0.00    +0.000 C 
BRANCH  63  64
ATOM     64  O   UNL     1       2.537  -2.905   0.000  0.00  0.00    +0.000 OA
ATOM     65  H   UNL     1       2.000  -2.595   0.000  0.00  0.00    +0.000 HD
ENDBRANCH  63  64
ENDBRANCH  56  63
ENDBRANCH  50  52
ENDBRANCH  40  50
ENDBRANCH  38  43
ENDBRANCH  37  38
ENDBRANCH   2  37
TORSDOF 21
