REMARK  Name = 131752474
REMARK  29 active torsions:
REMARK  status: ('A' for Active; 'I' for Inactive)
REMARK    1  A    between atoms: O_1  and  C_27
REMARK    2  A    between atoms: O_1  and  C_32
REMARK    3  A    between atoms: O_2  and  C_28
REMARK    4  A    between atoms: O_2  and  C_34
REMARK    5  A    between atoms: O_7  and  C_37
REMARK    6  A    between atoms: O_7  and  C_51
REMARK    7  A    between atoms: O_8  and  C_36
REMARK    8  A    between atoms: O_8  and  C_52
REMARK    9  A    between atoms: O_9  and  C_29
REMARK   10  A    between atoms: O_10  and  C_30
REMARK   11  A    between atoms: O_11  and  C_31
REMARK   12  A    between atoms: O_12  and  C_33
REMARK   13  A    between atoms: O_13  and  C_35
REMARK   14  A    between atoms: O_14  and  C_38
REMARK   15  A    between atoms: O_15  and  C_39
REMARK   16  A    between atoms: O_16  and  C_42
REMARK   17  A    between atoms: O_17  and  C_43
REMARK   18  A    between atoms: O_18  and  C_45
REMARK   19  A    between atoms: O_19  and  C_47
REMARK   20  A    between atoms: O_20  and  C_49
REMARK   21  A    between atoms: O_23  and  C_59
REMARK   22  A    between atoms: O_24  and  C_63
REMARK   23  A    between atoms: O_25  and  C_64
REMARK   24  A    between atoms: O_26  and  C_65
REMARK   25  A    between atoms: C_40  and  C_47
REMARK   26  A    between atoms: C_41  and  C_48
REMARK   27  A    between atoms: C_44  and  C_49
REMARK   28  A    between atoms: C_46  and  C_50
REMARK   29  A    between atoms: C_55  and  C_60
REMARK                            x       y       z     vdW  Elec       q    Type
REMARK                         _______ _______ _______ _____ _____    ______ ____
ROOT
ATOM      1  O   UNL     1       8.623  -1.225   0.000  0.00  0.00    +0.000 OA
ATOM      2  O   UNL     1       6.031   0.285   0.000  0.00  0.00    +0.000 OA
ATOM      3  C   UNL     1       7.763   0.279   0.000  0.00  0.00    +0.000 A 
ATOM      4  C   UNL     1       6.867  -3.287   0.000  0.00  0.00    +0.000 A 
ATOM      5  C   UNL     1       6.895  -0.218   0.000  0.00  0.00    +0.000 A 
ATOM      6  C   UNL     1       6.891  -1.218   0.000  0.00  0.00    +0.000 A 
ATOM      7  C   UNL     1       8.627  -0.225   0.000  0.00  0.00    +0.000 A 
ATOM      8  C   UNL     1       7.767  -2.763   0.000  0.00  0.00    +0.000 A 
ATOM      9  C   UNL     1       7.755  -1.721   0.000  0.00  0.00    +0.000 A 
ATOM     10  C   UNL     1       5.967  -2.763   0.000  0.00  0.00    +0.000 A 
ATOM     11  C   UNL     1       5.979  -1.721   0.000  0.00  0.00    +0.000 A 
ENDROOT
BRANCH   7  12
ATOM     12  C   UNL     1       9.495   0.272   0.000  0.00  0.00    +0.000 A 
ATOM     13  C   UNL     1       9.499   1.272   0.000  0.00  0.00    +0.000 A 
ATOM     14  C   UNL     1      10.359  -0.231   0.000  0.00  0.00    +0.000 A 
ATOM     15  C   UNL     1      11.227   0.265   0.000  0.00  0.00    +0.000 A 
ATOM     16  C   UNL     1      10.367   1.769   0.000  0.00  0.00    +0.000 A 
ATOM     17  C   UNL     1      11.231   1.265   0.000  0.00  0.00    +0.000 A 
BRANCH  15  18
ATOM     18  O   UNL     1      12.091  -0.238   0.000  0.00  0.00    +0.000 OA
ATOM     19  H   UNL     1      12.089  -0.858   0.000  0.00  0.00    +0.000 HD
ENDBRANCH  15  18
BRANCH  16  20
ATOM     20  O   UNL     1      10.370   2.768   0.000  0.00  0.00    +0.000 OA
ATOM     21  H   UNL     1      10.909   3.076   0.000  0.00  0.00    +0.000 HD
ENDBRANCH  16  20
BRANCH  17  22
ATOM     22  O   UNL     1      12.099   1.762   0.000  0.00  0.00    +0.000 OA
ATOM     23  H   UNL     1      12.634   1.450   0.000  0.00  0.00    +0.000 HD
ENDBRANCH  17  22
ENDBRANCH   7  12
BRANCH  11  24
ATOM     24  O   UNL     1       5.121  -1.208   0.000  0.00  0.00    +0.000 OA
ATOM     25  H   UNL     1       4.579  -1.510   0.000  0.00  0.00    +0.000 HD
ENDBRANCH  11  24
BRANCH   3  26
ATOM     26  O   UNL     1       7.767   1.279   0.000  0.00  0.00    +0.000 OA
BRANCH  26  31
ATOM     27  O   UNL     1       6.035   1.285   0.000  0.00  0.00    +0.000 OA
ATOM     28  C   UNL     1       6.906   2.782   0.000  0.00  0.00    +0.000 C 
ATOM     29  C   UNL     1       6.042   3.285   0.000  0.00  0.00    +0.000 C 
ATOM     30  C   UNL     1       5.174   2.789   0.000  0.00  0.00    +0.000 C 
ATOM     31  C   UNL     1       6.903   1.782   0.000  0.00  0.00    +0.000 C 
ATOM     32  C   UNL     1       5.170   1.789   0.000  0.00  0.00    +0.000 C 
ATOM     33  C   UNL     1       4.303   1.292   0.000  0.00  0.00    +0.000 C 
BRANCH  29  34
ATOM     34  O   UNL     1       6.046   4.285   0.000  0.00  0.00    +0.000 OA
ATOM     35  H   UNL     1       5.510   4.597   0.000  0.00  0.00    +0.000 HD
ENDBRANCH  29  34
BRANCH  30  36
ATOM     36  O   UNL     1       4.310   3.292   0.000  0.00  0.00    +0.000 OA
ATOM     37  H   UNL     1       3.772   2.984   0.000  0.00  0.00    +0.000 HD
ENDBRANCH  30  36
BRANCH  28  38
ATOM     38  O   UNL     1       7.774   3.279   0.000  0.00  0.00    +0.000 OA
BRANCH  38  40
ATOM     39  O   UNL     1       6.914   4.782   0.000  0.00  0.00    +0.000 OA
ATOM     40  C   UNL     1       7.778   4.279   0.000  0.00  0.00    +0.000 C 
ATOM     41  C   UNL     1       8.646   4.775   0.000  0.00  0.00    +0.000 C 
ATOM     42  C   UNL     1       8.650   5.775   0.000  0.00  0.00    +0.000 C 
ATOM     43  C   UNL     1       7.786   6.279   0.000  0.00  0.00    +0.000 C 
ATOM     44  C   UNL     1       6.918   5.782   0.000  0.00  0.00    +0.000 C 
BRANCH  41  45
ATOM     45  O   UNL     1       9.510   4.272   0.000  0.00  0.00    +0.000 OA
ATOM     46  H   UNL     1      10.048   4.580   0.000  0.00  0.00    +0.000 HD
ENDBRANCH  41  45
BRANCH  42  47
ATOM     47  O   UNL     1       9.518   6.272   0.000  0.00  0.00    +0.000 OA
ATOM     48  H   UNL     1       9.520   6.892   0.000  0.00  0.00    +0.000 HD
ENDBRANCH  42  47
BRANCH  43  49
ATOM     49  O   UNL     1       7.790   7.279   0.000  0.00  0.00    +0.000 OA
ATOM     50  H   UNL     1       7.254   7.591   0.000  0.00  0.00    +0.000 HD
ENDBRANCH  43  49
BRANCH  44  51
ATOM     51  C   UNL     1       6.054   6.285   0.000  0.00  0.00    +0.000 C 
BRANCH  51  52
ATOM     52  O   UNL     1       6.058   7.285   0.000  0.00  0.00    +0.000 OA
ATOM     53  H   UNL     1       5.522   7.597   0.000  0.00  0.00    +0.000 HD
ENDBRANCH  51  52
ENDBRANCH  44  51
ENDBRANCH  38  40
ENDBRANCH  28  38
ENDBRANCH  26  31
ENDBRANCH   3  26
BRANCH   4  54
ATOM     54  O   UNL     1       6.867  -4.287   0.000  0.00  0.00    +0.000 OA
BRANCH  54  59
ATOM     55  O   UNL     1       5.135  -4.287   0.000  0.00  0.00    +0.000 OA
ATOM     56  C   UNL     1       6.001  -5.787   0.000  0.00  0.00    +0.000 C 
ATOM     57  C   UNL     1       5.135  -6.287   0.000  0.00  0.00    +0.000 C 
ATOM     58  C   UNL     1       4.269  -5.787   0.000  0.00  0.00    +0.000 C 
ATOM     59  C   UNL     1       6.001  -4.787   0.000  0.00  0.00    +0.000 C 
ATOM     60  C   UNL     1       4.269  -4.787   0.000  0.00  0.00    +0.000 C 
BRANCH  57  61
ATOM     61  O   UNL     1       5.135  -7.287   0.000  0.00  0.00    +0.000 OA
ATOM     62  H   UNL     1       4.598  -7.597   0.000  0.00  0.00    +0.000 HD
ENDBRANCH  57  61
BRANCH  58  63
ATOM     63  O   UNL     1       3.403  -6.287   0.000  0.00  0.00    +0.000 OA
ATOM     64  H   UNL     1       3.403  -6.907   0.000  0.00  0.00    +0.000 HD
ENDBRANCH  58  63
BRANCH  56  65
ATOM     65  O   UNL     1       6.867  -6.287   0.000  0.00  0.00    +0.000 OA
BRANCH  65  67
ATOM     66  O   UNL     1       7.733  -4.787   0.000  0.00  0.00    +0.000 OA
ATOM     67  C   UNL     1       7.733  -5.787   0.000  0.00  0.00    +0.000 C 
ATOM     68  C   UNL     1       8.599  -6.287   0.000  0.00  0.00    +0.000 C 
ATOM     69  C   UNL     1       9.465  -5.787   0.000  0.00  0.00    +0.000 C 
ATOM     70  C   UNL     1       9.465  -4.787   0.000  0.00  0.00    +0.000 C 
ATOM     71  C   UNL     1       8.599  -4.287   0.000  0.00  0.00    +0.000 C 
ATOM     72  C   UNL     1       8.599  -3.287   0.000  0.00  0.00    +0.000 C 
BRANCH  68  73
ATOM     73  O   UNL     1       8.599  -7.287   0.000  0.00  0.00    +0.000 OA
ATOM     74  H   UNL     1       9.136  -7.597   0.000  0.00  0.00    +0.000 HD
ENDBRANCH  68  73
BRANCH  69  75
ATOM     75  O   UNL     1      10.331  -6.287   0.000  0.00  0.00    +0.000 OA
ATOM     76  H   UNL     1      10.868  -5.977   0.000  0.00  0.00    +0.000 HD
ENDBRANCH  69  75
BRANCH  70  77
ATOM     77  O   UNL     1      10.331  -4.287   0.000  0.00  0.00    +0.000 OA
ATOM     78  H   UNL     1      10.868  -4.597   0.000  0.00  0.00    +0.000 HD
ENDBRANCH  70  77
ENDBRANCH  65  67
ENDBRANCH  56  65
BRANCH  60  79
ATOM     79  C   UNL     1       3.403  -4.287   0.000  0.00  0.00    +0.000 C 
BRANCH  79  80
ATOM     80  O   UNL     1       2.537  -4.787   0.000  0.00  0.00    +0.000 OA
ATOM     81  H   UNL     1       2.000  -4.477   0.000  0.00  0.00    +0.000 HD
ENDBRANCH  79  80
ENDBRANCH  60  79
ENDBRANCH  54  59
ENDBRANCH   4  54
TORSDOF 27
