REMARK  Name = 5491408
REMARK  13 active torsions:
REMARK  status: ('A' for Active; 'I' for Inactive)
REMARK    1  A    between atoms: O_2  and  C_18
REMARK    2  A    between atoms: O_2  and  C_20
REMARK    3  A    between atoms: O_3  and  C_14
REMARK    4  A    between atoms: O_4  and  C_15
REMARK    5  A    between atoms: O_5  and  C_16
REMARK    6  A    between atoms: O_6  and  C_19
REMARK    7  A    between atoms: O_9  and  C_26
REMARK    8  A    between atoms: O_10  and  C_31
REMARK    9  A    between atoms: O_11  and  C_32
REMARK   10  A    between atoms: O_12  and  C_33
REMARK   11  A    between atoms: O_13  and  C_34
REMARK   12  A    between atoms: C_17  and  C_19
REMARK   13  A    between atoms: C_21  and  C_25
REMARK                            x       y       z     vdW  Elec       q    Type
REMARK                         _______ _______ _______ _____ _____    ______ ____
ROOT
ATOM      1  O   UNL     1       7.733   1.214   0.000  0.00  0.00    +0.000 OA
ATOM      2  O   UNL     1       5.135  -0.286   0.000  0.00  0.00    +0.000 OA
ATOM      3  C   UNL     1       6.867  -0.286   0.000  0.00  0.00    +0.000 A 
ATOM      4  C   UNL     1       7.733   0.214   0.000  0.00  0.00    +0.000 A 
ATOM      5  C   UNL     1       6.001   0.214   0.000  0.00  0.00    +0.000 A 
ATOM      6  C   UNL     1       6.001   1.214   0.000  0.00  0.00    +0.000 A 
ATOM      7  C   UNL     1       6.867   1.714   0.000  0.00  0.00    +0.000 A 
ATOM      8  C   UNL     1       5.091   1.721   0.000  0.00  0.00    +0.000 A 
ATOM      9  C   UNL     1       6.883   2.756   0.000  0.00  0.00    +0.000 A 
ATOM     10  C   UNL     1       5.083   2.763   0.000  0.00  0.00    +0.000 A 
ATOM     11  C   UNL     1       5.985   3.284   0.000  0.00  0.00    +0.000 A 
ENDROOT
BRANCH   4  12
ATOM     12  C   UNL     1       8.599  -0.286   0.000  0.00  0.00    +0.000 A 
ATOM     13  C   UNL     1       9.465   0.214   0.000  0.00  0.00    +0.000 A 
ATOM     14  C   UNL     1       8.599  -1.286   0.000  0.00  0.00    +0.000 A 
ATOM     15  C   UNL     1       9.465  -1.786   0.000  0.00  0.00    +0.000 A 
ATOM     16  C   UNL     1      10.331  -0.286   0.000  0.00  0.00    +0.000 A 
ATOM     17  C   UNL     1      10.331  -1.286   0.000  0.00  0.00    +0.000 A 
BRANCH  15  18
ATOM     18  O   UNL     1       9.465  -2.786   0.000  0.00  0.00    +0.000 OA
ATOM     19  H   UNL     1       8.928  -3.096   0.000  0.00  0.00    +0.000 HD
ENDBRANCH  15  18
BRANCH  16  20
ATOM     20  O   UNL     1      11.197   0.214   0.000  0.00  0.00    +0.000 OA
ATOM     21  H   UNL     1      11.197   0.834   0.000  0.00  0.00    +0.000 HD
ENDBRANCH  16  20
BRANCH  17  22
ATOM     22  O   UNL     1      11.197  -1.786   0.000  0.00  0.00    +0.000 OA
ATOM     23  H   UNL     1      11.197  -2.406   0.000  0.00  0.00    +0.000 HD
ENDBRANCH  17  22
ENDBRANCH   4  12
BRANCH   8  24
ATOM     24  O   UNL     1       4.231   1.211   0.000  0.00  0.00    +0.000 OA
ATOM     25  H   UNL     1       3.690   1.515   0.000  0.00  0.00    +0.000 HD
ENDBRANCH   8  24
BRANCH  11  26
ATOM     26  O   UNL     1       5.989   4.284   0.000  0.00  0.00    +0.000 OA
ATOM     27  H   UNL     1       5.453   4.596   0.000  0.00  0.00    +0.000 HD
ENDBRANCH  11  26
BRANCH   3  28
ATOM     28  O   UNL     1       6.867  -1.286   0.000  0.00  0.00    +0.000 OA
BRANCH  28  34
ATOM     29  O   UNL     1       5.135  -1.286   0.000  0.00  0.00    +0.000 OA
ATOM     30  C   UNL     1       5.135  -3.286   0.000  0.00  0.00    +0.000 C 
ATOM     31  C   UNL     1       4.269  -2.786   0.000  0.00  0.00    +0.000 C 
ATOM     32  C   UNL     1       6.001  -2.786   0.000  0.00  0.00    +0.000 C 
ATOM     33  C   UNL     1       4.269  -1.786   0.000  0.00  0.00    +0.000 C 
ATOM     34  C   UNL     1       6.001  -1.786   0.000  0.00  0.00    +0.000 C 
BRANCH  30  35
ATOM     35  O   UNL     1       5.135  -4.286   0.000  0.00  0.00    +0.000 OA
ATOM     36  H   UNL     1       4.598  -4.596   0.000  0.00  0.00    +0.000 HD
ENDBRANCH  30  35
BRANCH  31  37
ATOM     37  O   UNL     1       3.403  -3.286   0.000  0.00  0.00    +0.000 OA
ATOM     38  H   UNL     1       3.403  -3.906   0.000  0.00  0.00    +0.000 HD
ENDBRANCH  31  37
BRANCH  32  39
ATOM     39  O   UNL     1       6.867  -3.286   0.000  0.00  0.00    +0.000 OA
ATOM     40  H   UNL     1       6.867  -3.906   0.000  0.00  0.00    +0.000 HD
ENDBRANCH  32  39
BRANCH  33  41
ATOM     41  C   UNL     1       3.403  -1.286   0.000  0.00  0.00    +0.000 C 
BRANCH  41  42
ATOM     42  O   UNL     1       2.537  -1.786   0.000  0.00  0.00    +0.000 OA
ATOM     43  H   UNL     1       2.000  -1.476   0.000  0.00  0.00    +0.000 HD
ENDBRANCH  41  42
ENDBRANCH  33  41
ENDBRANCH  28  34
ENDBRANCH   3  28
TORSDOF 13
