REMARK  Name = 44259099
REMARK  17 active torsions:
REMARK  status: ('A' for Active; 'I' for Inactive)
REMARK    1  A    between atoms: O_1  and  C_17
REMARK    2  A    between atoms: O_1  and  C_20
REMARK    3  A    between atoms: O_4  and  C_21
REMARK    4  A    between atoms: O_4  and  C_29
REMARK    5  A    between atoms: O_5  and  C_18
REMARK    6  A    between atoms: O_6  and  C_19
REMARK    7  A    between atoms: O_7  and  C_22
REMARK    8  A    between atoms: O_8  and  C_24
REMARK    9  A    between atoms: O_9  and  C_25
REMARK   10  A    between atoms: O_10  and  C_27
REMARK   11  A    between atoms: O_13  and  C_35
REMARK   12  A    between atoms: O_14  and  C_40
REMARK   13  A    between atoms: O_15  and  C_41
REMARK   14  A    between atoms: O_16  and  C_43
REMARK   15  A    between atoms: C_23  and  C_27
REMARK   16  A    between atoms: C_26  and  C_28
REMARK   17  A    between atoms: C_30  and  C_33
REMARK                            x       y       z     vdW  Elec       q    Type
REMARK                         _______ _______ _______ _____ _____    ______ ____
ROOT
ATOM      1  O   UNL     1       5.135   0.214   0.000  0.00  0.00    +0.000 OA
ATOM      2  C   UNL     1       6.001  -1.286   0.000  0.00  0.00    +0.000 C 
ATOM      3  C   UNL     1       5.135  -1.786   0.000  0.00  0.00    +0.000 C 
ATOM      4  C   UNL     1       4.269  -1.286   0.000  0.00  0.00    +0.000 C 
ATOM      5  C   UNL     1       6.001  -0.286   0.000  0.00  0.00    +0.000 C 
ATOM      6  C   UNL     1       4.269  -0.286   0.000  0.00  0.00    +0.000 C 
ENDROOT
BRANCH   3   7
ATOM      7  O   UNL     1       5.135  -2.786   0.000  0.00  0.00    +0.000 OA
ATOM      8  H   UNL     1       4.598  -3.096   0.000  0.00  0.00    +0.000 HD
ENDBRANCH   3   7
BRANCH   4   9
ATOM      9  O   UNL     1       3.403  -1.786   0.000  0.00  0.00    +0.000 OA
ATOM     10  H   UNL     1       3.403  -2.406   0.000  0.00  0.00    +0.000 HD
ENDBRANCH   4   9
BRANCH   2  11
ATOM     11  O   UNL     1       6.867  -1.786   0.000  0.00  0.00    +0.000 OA
BRANCH  11  13
ATOM     12  O   UNL     1       6.001  -3.286   0.000  0.00  0.00    +0.000 OA
ATOM     13  C   UNL     1       6.867  -2.786   0.000  0.00  0.00    +0.000 C 
ATOM     14  C   UNL     1       7.733  -3.286   0.000  0.00  0.00    +0.000 C 
ATOM     15  C   UNL     1       7.733  -4.286   0.000  0.00  0.00    +0.000 C 
ATOM     16  C   UNL     1       6.867  -4.786   0.000  0.00  0.00    +0.000 C 
ATOM     17  C   UNL     1       6.001  -4.286   0.000  0.00  0.00    +0.000 C 
ATOM     18  C   UNL     1       5.135  -4.786   0.000  0.00  0.00    +0.000 C 
BRANCH  14  19
ATOM     19  O   UNL     1       8.599  -2.786   0.000  0.00  0.00    +0.000 OA
ATOM     20  H   UNL     1       9.136  -3.096   0.000  0.00  0.00    +0.000 HD
ENDBRANCH  14  19
BRANCH  15  21
ATOM     21  O   UNL     1       8.599  -4.786   0.000  0.00  0.00    +0.000 OA
ATOM     22  H   UNL     1       8.599  -5.406   0.000  0.00  0.00    +0.000 HD
ENDBRANCH  15  21
BRANCH  16  23
ATOM     23  O   UNL     1       6.867  -5.786   0.000  0.00  0.00    +0.000 OA
ATOM     24  H   UNL     1       6.330  -6.096   0.000  0.00  0.00    +0.000 HD
ENDBRANCH  16  23
ENDBRANCH  11  13
ENDBRANCH   2  11
BRANCH   5  25
ATOM     25  O   UNL     1       6.867   0.214   0.000  0.00  0.00    +0.000 OA
BRANCH  25  28
ATOM     26  O   UNL     1       7.733   2.714   0.000  0.00  0.00    +0.000 OA
ATOM     27  O   UNL     1       5.135   1.214   0.000  0.00  0.00    +0.000 OA
ATOM     28  C   UNL     1       6.867   1.214   0.000  0.00  0.00    +0.000 A 
ATOM     29  C   UNL     1       7.733   1.714   0.000  0.00  0.00    +0.000 A 
ATOM     30  C   UNL     1       6.001   1.714   0.000  0.00  0.00    +0.000 A 
ATOM     31  C   UNL     1       6.001   2.714   0.000  0.00  0.00    +0.000 A 
ATOM     32  C   UNL     1       6.867   3.214   0.000  0.00  0.00    +0.000 A 
ATOM     33  C   UNL     1       5.091   3.221   0.000  0.00  0.00    +0.000 A 
ATOM     34  C   UNL     1       6.883   4.256   0.000  0.00  0.00    +0.000 A 
ATOM     35  C   UNL     1       5.083   4.263   0.000  0.00  0.00    +0.000 A 
ATOM     36  C   UNL     1       5.985   4.784   0.000  0.00  0.00    +0.000 A 
BRANCH  29  37
ATOM     37  C   UNL     1       8.599   1.214   0.000  0.00  0.00    +0.000 A 
ATOM     38  C   UNL     1       9.465   1.714   0.000  0.00  0.00    +0.000 A 
ATOM     39  C   UNL     1       8.599   0.214   0.000  0.00  0.00    +0.000 A 
ATOM     40  C   UNL     1      10.331   1.214   0.000  0.00  0.00    +0.000 A 
ATOM     41  C   UNL     1       9.465  -0.286   0.000  0.00  0.00    +0.000 A 
ATOM     42  C   UNL     1      10.331   0.214   0.000  0.00  0.00    +0.000 A 
BRANCH  40  43
ATOM     43  O   UNL     1      11.197   1.714   0.000  0.00  0.00    +0.000 OA
ATOM     44  H   UNL     1      11.197   2.334   0.000  0.00  0.00    +0.000 HD
ENDBRANCH  40  43
BRANCH  42  45
ATOM     45  O   UNL     1      11.197  -0.286   0.000  0.00  0.00    +0.000 OA
ATOM     46  H   UNL     1      11.197  -0.906   0.000  0.00  0.00    +0.000 HD
ENDBRANCH  42  45
ENDBRANCH  29  37
BRANCH  33  47
ATOM     47  O   UNL     1       4.231   2.711   0.000  0.00  0.00    +0.000 OA
ATOM     48  H   UNL     1       3.690   3.015   0.000  0.00  0.00    +0.000 HD
ENDBRANCH  33  47
BRANCH  36  49
ATOM     49  O   UNL     1       5.989   5.784   0.000  0.00  0.00    +0.000 OA
ATOM     50  H   UNL     1       5.453   6.096   0.000  0.00  0.00    +0.000 HD
ENDBRANCH  36  49
ENDBRANCH  25  28
ENDBRANCH   5  25
BRANCH   6  51
ATOM     51  C   UNL     1       3.403   0.214   0.000  0.00  0.00    +0.000 C 
BRANCH  51  52
ATOM     52  O   UNL     1       2.537  -0.286   0.000  0.00  0.00    +0.000 OA
ATOM     53  H   UNL     1       2.000   0.024   0.000  0.00  0.00    +0.000 HD
ENDBRANCH  51  52
ENDBRANCH   6  51
TORSDOF 16
