REMARK  Name = 44259105
REMARK  23 active torsions:
REMARK  status: ('A' for Active; 'I' for Inactive)
REMARK    1  A    between atoms: O_1  and  C_22
REMARK    2  A    between atoms: O_1  and  C_27
REMARK    3  A    between atoms: O_4  and  C_25
REMARK    4  A    between atoms: O_4  and  C_35
REMARK    5  A    between atoms: O_6  and  C_23
REMARK    6  A    between atoms: O_7  and  C_24
REMARK    7  A    between atoms: O_8  and  C_28
REMARK    8  A    between atoms: O_9  and  C_29
REMARK    9  A    between atoms: O_10  and  C_30
REMARK   10  A    between atoms: O_11  and  C_33
REMARK   11  A    between atoms: O_12  and  C_34
REMARK   12  A    between atoms: O_13  and  C_37
REMARK   13  A    between atoms: O_13  and  C_40
REMARK   14  A    between atoms: O_14  and  C_36
REMARK   15  A    between atoms: O_15  and  C_39
REMARK   16  A    between atoms: O_18  and  C_46
REMARK   17  A    between atoms: O_19  and  C_51
REMARK   18  A    between atoms: O_20  and  C_52
REMARK   19  A    between atoms: O_21  and  C_54
REMARK   20  A    between atoms: C_26  and  C_38
REMARK   21  A    between atoms: C_31  and  C_35
REMARK   22  A    between atoms: C_32  and  C_39
REMARK   23  A    between atoms: C_41  and  C_44
REMARK                            x       y       z     vdW  Elec       q    Type
REMARK                         _______ _______ _______ _____ _____    ______ ____
ROOT
ATOM      1  O   UNL     1       8.599   1.250   0.000  0.00  0.00    +0.000 OA
ATOM      2  C   UNL     1       8.599   0.250   0.000  0.00  0.00    +0.000 C 
ATOM      3  C   UNL     1       9.465  -0.250   0.000  0.00  0.00    +0.000 C 
ATOM      4  C   UNL     1      10.331   0.250   0.000  0.00  0.00    +0.000 C 
ATOM      5  C   UNL     1      10.331   1.250   0.000  0.00  0.00    +0.000 C 
ATOM      6  C   UNL     1       9.465   1.750   0.000  0.00  0.00    +0.000 C 
ENDROOT
BRANCH   3   7
ATOM      7  O   UNL     1       9.465  -1.250   0.000  0.00  0.00    +0.000 OA
ATOM      8  H   UNL     1       8.928  -1.560   0.000  0.00  0.00    +0.000 HD
ENDBRANCH   3   7
BRANCH   4   9
ATOM      9  O   UNL     1      11.197  -0.250   0.000  0.00  0.00    +0.000 OA
ATOM     10  H   UNL     1      11.197  -0.870   0.000  0.00  0.00    +0.000 HD
ENDBRANCH   4   9
BRANCH   5  11
ATOM     11  O   UNL     1      11.197   1.750   0.000  0.00  0.00    +0.000 OA
ATOM     12  H   UNL     1      11.734   1.440   0.000  0.00  0.00    +0.000 HD
ENDBRANCH   5  11
BRANCH   6  13
ATOM     13  O   UNL     1       9.465   2.750   0.000  0.00  0.00    +0.000 OA
BRANCH  13  16
ATOM     14  O   UNL     1       7.733   4.750   0.000  0.00  0.00    +0.000 OA
ATOM     15  O   UNL     1       7.733   1.750   0.000  0.00  0.00    +0.000 OA
ATOM     16  C   UNL     1       8.599   3.250   0.000  0.00  0.00    +0.000 A 
ATOM     17  C   UNL     1       8.599   4.250   0.000  0.00  0.00    +0.000 A 
ATOM     18  C   UNL     1       7.733   2.750   0.000  0.00  0.00    +0.000 A 
ATOM     19  C   UNL     1       6.867   3.250   0.000  0.00  0.00    +0.000 A 
ATOM     20  C   UNL     1       6.867   4.250   0.000  0.00  0.00    +0.000 A 
ATOM     21  C   UNL     1       5.973   2.715   0.000  0.00  0.00    +0.000 A 
ATOM     22  C   UNL     1       5.973   4.785   0.000  0.00  0.00    +0.000 A 
ATOM     23  C   UNL     1       5.067   3.229   0.000  0.00  0.00    +0.000 A 
ATOM     24  C   UNL     1       5.067   4.271   0.000  0.00  0.00    +0.000 A 
BRANCH  17  25
ATOM     25  C   UNL     1       9.465   4.750   0.000  0.00  0.00    +0.000 A 
ATOM     26  C   UNL     1       9.465   5.750   0.000  0.00  0.00    +0.000 A 
ATOM     27  C   UNL     1      10.331   4.250   0.000  0.00  0.00    +0.000 A 
ATOM     28  C   UNL     1      10.331   6.250   0.000  0.00  0.00    +0.000 A 
ATOM     29  C   UNL     1      11.197   4.750   0.000  0.00  0.00    +0.000 A 
ATOM     30  C   UNL     1      11.197   5.750   0.000  0.00  0.00    +0.000 A 
BRANCH  28  31
ATOM     31  O   UNL     1      10.331   7.250   0.000  0.00  0.00    +0.000 OA
ATOM     32  H   UNL     1       9.794   7.560   0.000  0.00  0.00    +0.000 HD
ENDBRANCH  28  31
BRANCH  30  33
ATOM     33  O   UNL     1      12.063   6.250   0.000  0.00  0.00    +0.000 OA
ATOM     34  H   UNL     1      12.063   6.870   0.000  0.00  0.00    +0.000 HD
ENDBRANCH  30  33
ENDBRANCH  17  25
BRANCH  21  35
ATOM     35  O   UNL     1       5.985   1.715   0.000  0.00  0.00    +0.000 OA
ATOM     36  H   UNL     1       5.451   1.399   0.000  0.00  0.00    +0.000 HD
ENDBRANCH  21  35
BRANCH  24  37
ATOM     37  O   UNL     1       4.203   4.774   0.000  0.00  0.00    +0.000 OA
ATOM     38  H   UNL     1       3.665   4.466   0.000  0.00  0.00    +0.000 HD
ENDBRANCH  24  37
ENDBRANCH  13  16
ENDBRANCH   6  13
BRANCH   2  39
ATOM     39  C   UNL     1       7.733  -0.250   0.000  0.00  0.00    +0.000 C 
BRANCH  39  40
ATOM     40  O   UNL     1       7.733  -1.250   0.000  0.00  0.00    +0.000 OA
BRANCH  40  45
ATOM     41  O   UNL     1       6.001  -1.250   0.000  0.00  0.00    +0.000 OA
ATOM     42  C   UNL     1       6.001  -3.250   0.000  0.00  0.00    +0.000 C 
ATOM     43  C   UNL     1       6.867  -2.750   0.000  0.00  0.00    +0.000 C 
ATOM     44  C   UNL     1       5.135  -2.750   0.000  0.00  0.00    +0.000 C 
ATOM     45  C   UNL     1       6.867  -1.750   0.000  0.00  0.00    +0.000 C 
ATOM     46  C   UNL     1       5.135  -1.750   0.000  0.00  0.00    +0.000 C 
ATOM     47  C   UNL     1       4.269  -1.250   0.000  0.00  0.00    +0.000 C 
BRANCH  43  48
ATOM     48  O   UNL     1       7.733  -3.250   0.000  0.00  0.00    +0.000 OA
ATOM     49  H   UNL     1       8.270  -2.940   0.000  0.00  0.00    +0.000 HD
ENDBRANCH  43  48
BRANCH  44  50
ATOM     50  O   UNL     1       4.269  -3.250   0.000  0.00  0.00    +0.000 OA
ATOM     51  H   UNL     1       3.732  -2.940   0.000  0.00  0.00    +0.000 HD
ENDBRANCH  44  50
BRANCH  42  52
ATOM     52  O   UNL     1       6.001  -4.250   0.000  0.00  0.00    +0.000 OA
BRANCH  52  54
ATOM     53  O   UNL     1       4.269  -4.250   0.000  0.00  0.00    +0.000 OA
ATOM     54  C   UNL     1       5.135  -4.750   0.000  0.00  0.00    +0.000 C 
ATOM     55  C   UNL     1       5.135  -5.750   0.000  0.00  0.00    +0.000 C 
ATOM     56  C   UNL     1       4.269  -6.250   0.000  0.00  0.00    +0.000 C 
ATOM     57  C   UNL     1       3.403  -5.750   0.000  0.00  0.00    +0.000 C 
ATOM     58  C   UNL     1       3.403  -4.750   0.000  0.00  0.00    +0.000 C 
BRANCH  55  59
ATOM     59  O   UNL     1       6.001  -6.250   0.000  0.00  0.00    +0.000 OA
ATOM     60  H   UNL     1       6.001  -6.870   0.000  0.00  0.00    +0.000 HD
ENDBRANCH  55  59
BRANCH  56  61
ATOM     61  O   UNL     1       4.269  -7.250   0.000  0.00  0.00    +0.000 OA
ATOM     62  H   UNL     1       3.732  -7.560   0.000  0.00  0.00    +0.000 HD
ENDBRANCH  56  61
BRANCH  57  63
ATOM     63  O   UNL     1       2.537  -6.250   0.000  0.00  0.00    +0.000 OA
ATOM     64  H   UNL     1       2.000  -5.940   0.000  0.00  0.00    +0.000 HD
ENDBRANCH  57  63
BRANCH  58  65
ATOM     65  C   UNL     1       2.537  -4.250   0.000  0.00  0.00    +0.000 C 
BRANCH  65  66
ATOM     66  O   UNL     1       2.537  -3.250   0.000  0.00  0.00    +0.000 OA
ATOM     67  H   UNL     1       2.000  -2.940   0.000  0.00  0.00    +0.000 HD
ENDBRANCH  65  66
ENDBRANCH  58  65
ENDBRANCH  52  54
ENDBRANCH  42  52
ENDBRANCH  40  45
ENDBRANCH  39  40
ENDBRANCH   2  39
TORSDOF 22
