MODEL 1
REMARK VINA RESULT:      -8.3      0.000      0.000
REMARK  Name = 9064
REMARK  6 active torsions:
REMARK  status: ('A' for Active; 'I' for Inactive)
REMARK    1  A    between atoms: O_2  and  C_7
REMARK    2  A    between atoms: O_3  and  C_13
REMARK    3  A    between atoms: O_4  and  C_18
REMARK    4  A    between atoms: O_5  and  C_19
REMARK    5  A    between atoms: O_6  and  C_21
REMARK    6  A    between atoms: C_8  and  C_12
REMARK                            x       y       z     vdW  Elec       q    Type
REMARK                         _______ _______ _______ _____ _____    ______ ____
ROOT
ATOM      1  O   UNL     1     125.355 129.964  86.954  0.00  0.00    +0.000 OA
ATOM      2  C   UNL     1     125.761 131.648  86.987  0.00  0.00    +0.000 C 
ATOM      3  C   UNL     1     125.888 130.719  87.336  0.00  0.00    +0.000 C 
ATOM      4  C   UNL     1     125.100 131.821  86.257  0.00  0.00    +0.000 C 
ATOM      5  C   UNL     1     124.567 131.066  85.875  0.00  0.00    +0.000 A 
ATOM      6  C   UNL     1     124.694 130.138  86.224  0.00  0.00    +0.000 A 
ATOM      7  C   UNL     1     123.882 131.262  85.115  0.00  0.00    +0.000 A 
ATOM      8  C   UNL     1     124.146 129.341  85.837  0.00  0.00    +0.000 A 
ATOM      9  C   UNL     1     123.323 130.481  84.713  0.00  0.00    +0.000 A 
ATOM     10  C   UNL     1     123.456 129.514  85.076  0.00  0.00    +0.000 A 
ENDROOT
BRANCH   3  11
ATOM     11  C   UNL     1     126.549 130.546  88.066  0.00  0.00    +0.000 A 
ATOM     12  C   UNL     1     126.285 130.681  89.021  0.00  0.00    +0.000 A 
ATOM     13  C   UNL     1     127.473 130.237  87.841  0.00  0.00    +0.000 A 
ATOM     14  C   UNL     1     126.946 130.507  89.752  0.00  0.00    +0.000 A 
ATOM     15  C   UNL     1     128.134 130.063  88.572  0.00  0.00    +0.000 A 
ATOM     16  C   UNL     1     127.870 130.199  89.527  0.00  0.00    +0.000 A 
BRANCH  14  17
ATOM     17  O   UNL     1     126.683 130.643  90.707  0.00  0.00    +0.000 OA
ATOM     18  H   UNL     1     126.526 131.208  90.908  0.00  0.00    +0.000 HD
ENDBRANCH  14  17
BRANCH  16  19
ATOM     19  O   UNL     1     128.531 130.025  90.257  0.00  0.00    +0.000 OA
ATOM     20  H   UNL     1     128.999 129.629  90.164  0.00  0.00    +0.000 HD
ENDBRANCH  16  19
ENDBRANCH   3  11
BRANCH   2  21
ATOM     21  O   UNL     1     126.294 132.403  87.369  0.00  0.00    +0.000 OA
ATOM     22  H   UNL     1     126.882 132.488  87.191  0.00  0.00    +0.000 HD
ENDBRANCH   2  21
BRANCH   7  23
ATOM     23  O   UNL     1     123.763 132.195  84.774  0.00  0.00    +0.000 OA
ATOM     24  H   UNL     1     123.194 132.431  84.712  0.00  0.00    +0.000 HD
ENDBRANCH   7  23
BRANCH  10  25
ATOM     25  O   UNL     1     122.924 128.757  84.697  0.00  0.00    +0.000 OA
ATOM     26  H   UNL     1     123.143 128.434  84.216  0.00  0.00    +0.000 HD
ENDBRANCH  10  25
TORSDOF 6
ENDMDL
MODEL 2
REMARK VINA RESULT:      -7.9      1.812      4.823
REMARK  Name = 9064
REMARK  6 active torsions:
REMARK  status: ('A' for Active; 'I' for Inactive)
REMARK    1  A    between atoms: O_2  and  C_7
REMARK    2  A    between atoms: O_3  and  C_13
REMARK    3  A    between atoms: O_4  and  C_18
REMARK    4  A    between atoms: O_5  and  C_19
REMARK    5  A    between atoms: O_6  and  C_21
REMARK    6  A    between atoms: C_8  and  C_12
REMARK                            x       y       z     vdW  Elec       q    Type
REMARK                         _______ _______ _______ _____ _____    ______ ____
ROOT
ATOM      1  O   UNL     1     125.374 130.620  87.065  0.00  0.00    +0.000 OA
ATOM      2  C   UNL     1     125.138 130.100  85.430  0.00  0.00    +0.000 C 
ATOM      3  C   UNL     1     124.769 130.469  86.283  0.00  0.00    +0.000 C 
ATOM      4  C   UNL     1     126.112 129.883  85.359  0.00  0.00    +0.000 C 
ATOM      5  C   UNL     1     126.716 130.034  86.141  0.00  0.00    +0.000 A 
ATOM      6  C   UNL     1     126.347 130.403  86.994  0.00  0.00    +0.000 A 
ATOM      7  C   UNL     1     127.728 129.804  86.052  0.00  0.00    +0.000 A 
ATOM      8  C   UNL     1     126.964 130.566  87.817  0.00  0.00    +0.000 A 
ATOM      9  C   UNL     1     128.364 129.959  86.862  0.00  0.00    +0.000 A 
ATOM     10  C   UNL     1     127.980 130.343  87.750  0.00  0.00    +0.000 A 
ENDROOT
BRANCH   3  11
ATOM     11  C   UNL     1     123.796 130.686  86.354  0.00  0.00    +0.000 A 
ATOM     12  C   UNL     1     123.138 129.967  86.579  0.00  0.00    +0.000 A 
ATOM     13  C   UNL     1     123.480 131.622  86.201  0.00  0.00    +0.000 A 
ATOM     14  C   UNL     1     122.165 130.184  86.650  0.00  0.00    +0.000 A 
ATOM     15  C   UNL     1     122.506 131.839  86.272  0.00  0.00    +0.000 A 
ATOM     16  C   UNL     1     121.849 131.120  86.497  0.00  0.00    +0.000 A 
BRANCH  14  17
ATOM     17  O   UNL     1     121.507 129.465  86.874  0.00  0.00    +0.000 OA
ATOM     18  H   UNL     1     121.582 129.125  87.387  0.00  0.00    +0.000 HD
ENDBRANCH  14  17
BRANCH  16  19
ATOM     19  O   UNL     1     120.875 131.337  86.568  0.00  0.00    +0.000 OA
ATOM     20  H   UNL     1     120.614 131.725  86.161  0.00  0.00    +0.000 HD
ENDBRANCH  16  19
ENDBRANCH   3  11
BRANCH   2  21
ATOM     21  O   UNL     1     124.534 129.948  84.648  0.00  0.00    +0.000 OA
ATOM     22  H   UNL     1     123.948 130.151  84.665  0.00  0.00    +0.000 HD
ENDBRANCH   2  21
BRANCH   7  23
ATOM     23  O   UNL     1     128.086 129.435  85.194  0.00  0.00    +0.000 OA
ATOM     24  H   UNL     1     128.091 128.823  85.098  0.00  0.00    +0.000 HD
ENDBRANCH   7  23
BRANCH  10  25
ATOM     25  O   UNL     1     128.581 130.495  88.534  0.00  0.00    +0.000 OA
ATOM     26  H   UNL     1     128.748 131.071  88.690  0.00  0.00    +0.000 HD
ENDBRANCH  10  25
TORSDOF 6
ENDMDL
MODEL 3
REMARK VINA RESULT:      -7.9     62.406     64.855
REMARK  Name = 9064
REMARK  6 active torsions:
REMARK  status: ('A' for Active; 'I' for Inactive)
REMARK    1  A    between atoms: O_2  and  C_7
REMARK    2  A    between atoms: O_3  and  C_13
REMARK    3  A    between atoms: O_4  and  C_18
REMARK    4  A    between atoms: O_5  and  C_19
REMARK    5  A    between atoms: O_6  and  C_21
REMARK    6  A    between atoms: C_8  and  C_12
REMARK                            x       y       z     vdW  Elec       q    Type
REMARK                         _______ _______ _______ _____ _____    ______ ____
ROOT
ATOM      1  O   UNL     1     111.380 110.215 147.532  0.00  0.00    +0.000 OA
ATOM      2  C   UNL     1     112.829 111.002 147.003  0.00  0.00    +0.000 C 
ATOM      3  C   UNL     1     111.833 110.913 146.978  0.00  0.00    +0.000 C 
ATOM      4  C   UNL     1     113.371 110.392 147.581  0.00  0.00    +0.000 C 
ATOM      5  C   UNL     1     112.917 109.694 148.135  0.00  0.00    +0.000 A 
ATOM      6  C   UNL     1     111.922 109.605 148.110  0.00  0.00    +0.000 A 
ATOM      7  C   UNL     1     113.495 109.066 148.732  0.00  0.00    +0.000 A 
ATOM      8  C   UNL     1     111.435 108.883 148.682  0.00  0.00    +0.000 A 
ATOM      9  C   UNL     1     113.029 108.336 149.312  0.00  0.00    +0.000 A 
ATOM     10  C   UNL     1     111.993 108.244 149.286  0.00  0.00    +0.000 A 
ENDROOT
BRANCH   3  11
ATOM     11  C   UNL     1     111.291 111.523 146.400  0.00  0.00    +0.000 A 
ATOM     12  C   UNL     1     111.049 111.245 145.470  0.00  0.00    +0.000 A 
ATOM     13  C   UNL     1     110.991 112.410 146.752  0.00  0.00    +0.000 A 
ATOM     14  C   UNL     1     110.507 111.855 144.892  0.00  0.00    +0.000 A 
ATOM     15  C   UNL     1     110.449 113.019 146.173  0.00  0.00    +0.000 A 
ATOM     16  C   UNL     1     110.207 112.742 145.244  0.00  0.00    +0.000 A 
BRANCH  14  17
ATOM     17  O   UNL     1     110.264 111.578 143.962  0.00  0.00    +0.000 OA
ATOM     18  H   UNL     1     109.669 111.499 143.808  0.00  0.00    +0.000 HD
ENDBRANCH  14  17
BRANCH  16  19
ATOM     19  O   UNL     1     109.665 113.352 144.665  0.00  0.00    +0.000 OA
ATOM     20  H   UNL     1     109.398 113.134 144.150  0.00  0.00    +0.000 HD
ENDBRANCH  16  19
ENDBRANCH   3  11
BRANCH   2  21
ATOM     21  O   UNL     1     113.283 111.700 146.449  0.00  0.00    +0.000 OA
ATOM     22  H   UNL     1     113.280 112.292 146.634  0.00  0.00    +0.000 HD
ENDBRANCH   2  21
BRANCH   7  23
ATOM     23  O   UNL     1     114.490 109.164 148.749  0.00  0.00    +0.000 OA
ATOM     24  H   UNL     1     114.762 109.488 149.202  0.00  0.00    +0.000 HD
ENDBRANCH   7  23
BRANCH  10  25
ATOM     25  O   UNL     1     111.536 107.547 149.839  0.00  0.00    +0.000 OA
ATOM     26  H   UNL     1     111.217 107.711 150.343  0.00  0.00    +0.000 HD
ENDBRANCH  10  25
TORSDOF 6
ENDMDL
MODEL 4
REMARK VINA RESULT:      -7.9     33.215     34.392
REMARK  Name = 9064
REMARK  6 active torsions:
REMARK  status: ('A' for Active; 'I' for Inactive)
REMARK    1  A    between atoms: O_2  and  C_7
REMARK    2  A    between atoms: O_3  and  C_13
REMARK    3  A    between atoms: O_4  and  C_18
REMARK    4  A    between atoms: O_5  and  C_19
REMARK    5  A    between atoms: O_6  and  C_21
REMARK    6  A    between atoms: C_8  and  C_12
REMARK                            x       y       z     vdW  Elec       q    Type
REMARK                         _______ _______ _______ _____ _____    ______ ____
ROOT
ATOM      1  O   UNL     1     123.404  99.414 102.737  0.00  0.00    +0.000 OA
ATOM      2  C   UNL     1     122.317 100.737 102.471  0.00  0.00    +0.000 C 
ATOM      3  C   UNL     1     123.196 100.391 102.799  0.00  0.00    +0.000 C 
ATOM      4  C   UNL     1     121.645 100.106 102.082  0.00  0.00    +0.000 C 
ATOM      5  C   UNL     1     121.853  99.130 102.021  0.00  0.00    +0.000 A 
ATOM      6  C   UNL     1     122.732  98.784 102.349  0.00  0.00    +0.000 A 
ATOM      7  C   UNL     1     121.144  98.485 101.614  0.00  0.00    +0.000 A 
ATOM      8  C   UNL     1     122.963  97.770 102.292  0.00  0.00    +0.000 A 
ATOM      9  C   UNL     1     121.353  97.467 101.547  0.00  0.00    +0.000 A 
ATOM     10  C   UNL     1     122.268  97.107 101.888  0.00  0.00    +0.000 A 
ENDROOT
BRANCH   3  11
ATOM     11  C   UNL     1     123.868 101.021 103.188  0.00  0.00    +0.000 A 
ATOM     12  C   UNL     1     124.625 101.355 102.625  0.00  0.00    +0.000 A 
ATOM     13  C   UNL     1     123.783 101.318 104.139  0.00  0.00    +0.000 A 
ATOM     14  C   UNL     1     125.297 101.985 103.014  0.00  0.00    +0.000 A 
ATOM     15  C   UNL     1     124.455 101.948 104.528  0.00  0.00    +0.000 A 
ATOM     16  C   UNL     1     125.212 102.282 103.965  0.00  0.00    +0.000 A 
BRANCH  14  17
ATOM     17  O   UNL     1     126.053 102.319 102.452  0.00  0.00    +0.000 OA
ATOM     18  H   UNL     1     126.413 102.780 102.658  0.00  0.00    +0.000 HD
ENDBRANCH  14  17
BRANCH  16  19
ATOM     19  O   UNL     1     125.884 102.912 104.354  0.00  0.00    +0.000 OA
ATOM     20  H   UNL     1     125.715 103.308 104.801  0.00  0.00    +0.000 HD
ENDBRANCH  16  19
ENDBRANCH   3  11
BRANCH   2  21
ATOM     21  O   UNL     1     122.110 101.713 102.532  0.00  0.00    +0.000 OA
ATOM     22  H   UNL     1     121.644 101.909 102.891  0.00  0.00    +0.000 HD
ENDBRANCH   2  21
BRANCH   7  23
ATOM     23  O   UNL     1     120.268  98.842 101.289  0.00  0.00    +0.000 OA
ATOM     24  H   UNL     1     120.054  98.678 100.732  0.00  0.00    +0.000 HD
ENDBRANCH   7  23
BRANCH  10  25
ATOM     25  O   UNL     1     122.479  96.131 101.828  0.00  0.00    +0.000 OA
ATOM     26  H   UNL     1     123.062  95.945 101.733  0.00  0.00    +0.000 HD
ENDBRANCH  10  25
TORSDOF 6
ENDMDL
MODEL 5
REMARK VINA RESULT:      -7.8      1.845      2.404
REMARK  Name = 9064
REMARK  6 active torsions:
REMARK  status: ('A' for Active; 'I' for Inactive)
REMARK    1  A    between atoms: O_2  and  C_7
REMARK    2  A    between atoms: O_3  and  C_13
REMARK    3  A    between atoms: O_4  and  C_18
REMARK    4  A    between atoms: O_5  and  C_19
REMARK    5  A    between atoms: O_6  and  C_21
REMARK    6  A    between atoms: C_8  and  C_12
REMARK                            x       y       z     vdW  Elec       q    Type
REMARK                         _______ _______ _______ _____ _____    ______ ____
ROOT
ATOM      1  O   UNL     1     125.038 130.104  86.201  0.00  0.00    +0.000 OA
ATOM      2  C   UNL     1     125.202 131.123  87.592  0.00  0.00    +0.000 C 
ATOM      3  C   UNL     1     125.617 130.586  86.857  0.00  0.00    +0.000 C 
ATOM      4  C   UNL     1     124.206 131.176  87.670  0.00  0.00    +0.000 C 
ATOM      5  C   UNL     1     123.626 130.693  87.014  0.00  0.00    +0.000 A 
ATOM      6  C   UNL     1     124.042 130.157  86.280  0.00  0.00    +0.000 A 
ATOM      7  C   UNL     1     122.591 130.758  87.108  0.00  0.00    +0.000 A 
ATOM      8  C   UNL     1     123.451 129.648  85.588  0.00  0.00    +0.000 A 
ATOM      9  C   UNL     1     121.981 130.257  86.429  0.00  0.00    +0.000 A 
ATOM     10  C   UNL     1     122.414 129.699  85.664  0.00  0.00    +0.000 A 
ENDROOT
BRANCH   3  11
ATOM     11  C   UNL     1     126.613 130.533  86.779  0.00  0.00    +0.000 A 
ATOM     12  C   UNL     1     127.098 131.140  86.149  0.00  0.00    +0.000 A 
ATOM     13  C   UNL     1     127.123 129.873  87.330  0.00  0.00    +0.000 A 
ATOM     14  C   UNL     1     128.094 131.087  86.071  0.00  0.00    +0.000 A 
ATOM     15  C   UNL     1     128.119 129.820  87.252  0.00  0.00    +0.000 A 
ATOM     16  C   UNL     1     128.604 130.426  86.622  0.00  0.00    +0.000 A 
BRANCH  14  17
ATOM     17  O   UNL     1     128.579 131.693  85.441  0.00  0.00    +0.000 OA
ATOM     18  H   UNL     1     128.361 132.263  85.330  0.00  0.00    +0.000 HD
ENDBRANCH  14  17
BRANCH  16  19
ATOM     19  O   UNL     1     129.599 130.373  86.544  0.00  0.00    +0.000 OA
ATOM     20  H   UNL     1     129.904 130.777  86.185  0.00  0.00    +0.000 HD
ENDBRANCH  16  19
ENDBRANCH   3  11
BRANCH   2  21
ATOM     21  O   UNL     1     125.782 131.606  88.248  0.00  0.00    +0.000 OA
ATOM     22  H   UNL     1     125.647 132.189  88.410  0.00  0.00    +0.000 HD
ENDBRANCH   2  21
BRANCH   7  23
ATOM     23  O   UNL     1     122.187 131.297  87.847  0.00  0.00    +0.000 OA
ATOM     24  H   UNL     1     121.574 131.289  87.936  0.00  0.00    +0.000 HD
ENDBRANCH   7  23
BRANCH  10  25
ATOM     25  O   UNL     1     121.837 129.215  85.006  0.00  0.00    +0.000 OA
ATOM     26  H   UNL     1     121.587 129.521  84.529  0.00  0.00    +0.000 HD
ENDBRANCH  10  25
TORSDOF 6
ENDMDL
MODEL 6
REMARK VINA RESULT:      -7.8     32.105     34.502
REMARK  Name = 9064
REMARK  6 active torsions:
REMARK  status: ('A' for Active; 'I' for Inactive)
REMARK    1  A    between atoms: O_2  and  C_7
REMARK    2  A    between atoms: O_3  and  C_13
REMARK    3  A    between atoms: O_4  and  C_18
REMARK    4  A    between atoms: O_5  and  C_19
REMARK    5  A    between atoms: O_6  and  C_21
REMARK    6  A    between atoms: C_8  and  C_12
REMARK                            x       y       z     vdW  Elec       q    Type
REMARK                         _______ _______ _______ _____ _____    ______ ____
ROOT
ATOM      1  O   UNL     1     124.056 112.692 116.205  0.00  0.00    +0.000 OA
ATOM      2  C   UNL     1     124.562 113.935 117.300  0.00  0.00    +0.000 C 
ATOM      3  C   UNL     1     123.947 113.181 117.070  0.00  0.00    +0.000 C 
ATOM      4  C   UNL     1     125.286 114.201 116.663  0.00  0.00    +0.000 C 
ATOM      5  C   UNL     1     125.395 113.712 115.798  0.00  0.00    +0.000 A 
ATOM      6  C   UNL     1     124.780 112.958 115.568  0.00  0.00    +0.000 A 
ATOM      7  C   UNL     1     126.154 114.000 115.145  0.00  0.00    +0.000 A 
ATOM      8  C   UNL     1     124.882 112.439 114.671  0.00  0.00    +0.000 A 
ATOM      9  C   UNL     1     126.274 113.496 114.242  0.00  0.00    +0.000 A 
ATOM     10  C   UNL     1     125.634 112.710 114.003  0.00  0.00    +0.000 A 
ENDROOT
BRANCH   3  11
ATOM     11  C   UNL     1     123.223 112.915 117.706  0.00  0.00    +0.000 A 
ATOM     12  C   UNL     1     122.378 113.448 117.753  0.00  0.00    +0.000 A 
ATOM     13  C   UNL     1     123.343 112.117 118.296  0.00  0.00    +0.000 A 
ATOM     14  C   UNL     1     121.653 113.182 118.389  0.00  0.00    +0.000 A 
ATOM     15  C   UNL     1     122.619 111.851 118.932  0.00  0.00    +0.000 A 
ATOM     16  C   UNL     1     121.774 112.384 118.979  0.00  0.00    +0.000 A 
BRANCH  14  17
ATOM     17  O   UNL     1     120.809 113.715 118.436  0.00  0.00    +0.000 OA
ATOM     18  H   UNL     1     120.821 114.326 118.330  0.00  0.00    +0.000 HD
ENDBRANCH  14  17
BRANCH  16  19
ATOM     19  O   UNL     1     121.050 112.118 119.615  0.00  0.00    +0.000 OA
ATOM     20  H   UNL     1     121.107 112.243 120.220  0.00  0.00    +0.000 HD
ENDBRANCH  16  19
ENDBRANCH   3  11
BRANCH   2  21
ATOM     21  O   UNL     1     124.453 114.424 118.165  0.00  0.00    +0.000 OA
ATOM     22  H   UNL     1     124.694 114.190 118.686  0.00  0.00    +0.000 HD
ENDBRANCH   2  21
BRANCH   7  23
ATOM     23  O   UNL     1     126.763 114.756 115.385  0.00  0.00    +0.000 OA
ATOM     24  H   UNL     1     126.666 115.080 115.904  0.00  0.00    +0.000 HD
ENDBRANCH   7  23
BRANCH  10  25
ATOM     25  O   UNL     1     125.740 112.219 113.138  0.00  0.00    +0.000 OA
ATOM     26  H   UNL     1     126.303 112.144 112.892  0.00  0.00    +0.000 HD
ENDBRANCH  10  25
TORSDOF 6
ENDMDL
MODEL 7
REMARK VINA RESULT:      -7.7     43.057     44.973
REMARK  Name = 9064
REMARK  6 active torsions:
REMARK  status: ('A' for Active; 'I' for Inactive)
REMARK    1  A    between atoms: O_2  and  C_7
REMARK    2  A    between atoms: O_3  and  C_13
REMARK    3  A    between atoms: O_4  and  C_18
REMARK    4  A    between atoms: O_5  and  C_19
REMARK    5  A    between atoms: O_6  and  C_21
REMARK    6  A    between atoms: C_8  and  C_12
REMARK                            x       y       z     vdW  Elec       q    Type
REMARK                         _______ _______ _______ _____ _____    ______ ____
ROOT
ATOM      1  O   UNL     1     120.637 126.066 131.402  0.00  0.00    +0.000 OA
ATOM      2  C   UNL     1     120.696 124.341 131.260  0.00  0.00    +0.000 C 
ATOM      3  C   UNL     1     121.034 125.188 131.669  0.00  0.00    +0.000 C 
ATOM      4  C   UNL     1     119.961 124.371 130.582  0.00  0.00    +0.000 C 
ATOM      5  C   UNL     1     119.564 125.249 130.314  0.00  0.00    +0.000 A 
ATOM      6  C   UNL     1     119.902 126.096 130.724  0.00  0.00    +0.000 A 
ATOM      7  C   UNL     1     118.799 125.265 129.608  0.00  0.00    +0.000 A 
ATOM      8  C   UNL     1     119.498 127.018 130.456  0.00  0.00    +0.000 A 
ATOM      9  C   UNL     1     118.381 126.176 129.324  0.00  0.00    +0.000 A 
ATOM     10  C   UNL     1     118.732 127.058 129.751  0.00  0.00    +0.000 A 
ENDROOT
BRANCH   3  11
ATOM     11  C   UNL     1     121.769 125.158 132.347  0.00  0.00    +0.000 A 
ATOM     12  C   UNL     1     121.549 125.139 133.322  0.00  0.00    +0.000 A 
ATOM     13  C   UNL     1     122.723 125.146 132.049  0.00  0.00    +0.000 A 
ATOM     14  C   UNL     1     122.284 125.109 134.000  0.00  0.00    +0.000 A 
ATOM     15  C   UNL     1     123.458 125.116 132.726  0.00  0.00    +0.000 A 
ATOM     16  C   UNL     1     123.238 125.097 133.702  0.00  0.00    +0.000 A 
BRANCH  14  17
ATOM     17  O   UNL     1     122.064 125.090 134.975  0.00  0.00    +0.000 OA
ATOM     18  H   UNL     1     121.594 124.742 135.181  0.00  0.00    +0.000 HD
ENDBRANCH  14  17
BRANCH  16  19
ATOM     19  O   UNL     1     123.973 125.067 134.379  0.00  0.00    +0.000 OA
ATOM     20  H   UNL     1     123.864 124.837 134.945  0.00  0.00    +0.000 HD
ENDBRANCH  16  19
ENDBRANCH   3  11
BRANCH   2  21
ATOM     21  O   UNL     1     121.094 123.463 131.527  0.00  0.00    +0.000 OA
ATOM     22  H   UNL     1     121.203 123.342 132.125  0.00  0.00    +0.000 HD
ENDBRANCH   2  21
BRANCH   7  23
ATOM     23  O   UNL     1     118.470 124.411 129.205  0.00  0.00    +0.000 OA
ATOM     24  H   UNL     1     117.995 124.109 129.464  0.00  0.00    +0.000 HD
ENDBRANCH   7  23
BRANCH  10  25
ATOM     25  O   UNL     1     118.337 127.937 129.485  0.00  0.00    +0.000 OA
ATOM     26  H   UNL     1     118.106 128.316 129.917  0.00  0.00    +0.000 HD
ENDBRANCH  10  25
TORSDOF 6
ENDMDL
MODEL 8
REMARK VINA RESULT:      -7.7     92.753     94.446
REMARK  Name = 9064
REMARK  6 active torsions:
REMARK  status: ('A' for Active; 'I' for Inactive)
REMARK    1  A    between atoms: O_2  and  C_7
REMARK    2  A    between atoms: O_3  and  C_13
REMARK    3  A    between atoms: O_4  and  C_18
REMARK    4  A    between atoms: O_5  and  C_19
REMARK    5  A    between atoms: O_6  and  C_21
REMARK    6  A    between atoms: C_8  and  C_12
REMARK                            x       y       z     vdW  Elec       q    Type
REMARK                         _______ _______ _______ _____ _____    ______ ____
ROOT
ATOM      1  O   UNL     1      74.218 118.990 165.462  0.00  0.00    +0.000 OA
ATOM      2  C   UNL     1      72.672 119.719 165.181  0.00  0.00    +0.000 C 
ATOM      3  C   UNL     1      73.461 119.205 164.845  0.00  0.00    +0.000 C 
ATOM      4  C   UNL     1      72.641 120.019 166.135  0.00  0.00    +0.000 C 
ATOM      5  C   UNL     1      73.398 119.804 166.752  0.00  0.00    +0.000 A 
ATOM      6  C   UNL     1      74.187 119.290 166.415  0.00  0.00    +0.000 A 
ATOM      7  C   UNL     1      73.351 120.123 167.742  0.00  0.00    +0.000 A 
ATOM      8  C   UNL     1      74.983 119.059 167.046  0.00  0.00    +0.000 A 
ATOM      9  C   UNL     1      74.136 119.903 168.390  0.00  0.00    +0.000 A 
ATOM     10  C   UNL     1      74.957 119.368 168.040  0.00  0.00    +0.000 A 
ENDROOT
BRANCH   3  11
ATOM     11  C   UNL     1      73.493 118.905 163.891  0.00  0.00    +0.000 A 
ATOM     12  C   UNL     1      73.882 119.504 163.191  0.00  0.00    +0.000 A 
ATOM     13  C   UNL     1      73.135 118.007 163.637  0.00  0.00    +0.000 A 
ATOM     14  C   UNL     1      73.914 119.205 162.238  0.00  0.00    +0.000 A 
ATOM     15  C   UNL     1      73.167 117.707 162.684  0.00  0.00    +0.000 A 
ATOM     16  C   UNL     1      73.556 118.306 161.984  0.00  0.00    +0.000 A 
BRANCH  14  17
ATOM     17  O   UNL     1      74.303 119.804 161.538  0.00  0.00    +0.000 OA
ATOM     18  H   UNL     1      74.904 119.759 161.391  0.00  0.00    +0.000 HD
ENDBRANCH  14  17
BRANCH  16  19
ATOM     19  O   UNL     1      73.588 118.006 161.031  0.00  0.00    +0.000 OA
ATOM     20  H   UNL     1      74.132 117.873 160.766  0.00  0.00    +0.000 HD
ENDBRANCH  16  19
ENDBRANCH   3  11
BRANCH   2  21
ATOM     21  O   UNL     1      71.915 119.934 164.564  0.00  0.00    +0.000 OA
ATOM     22  H   UNL     1      71.749 119.529 164.125  0.00  0.00    +0.000 HD
ENDBRANCH   2  21
BRANCH   7  23
ATOM     23  O   UNL     1      72.558 120.637 168.068  0.00  0.00    +0.000 OA
ATOM     24  H   UNL     1      72.513 121.244 167.951  0.00  0.00    +0.000 HD
ENDBRANCH   7  23
BRANCH  10  25
ATOM     25  O   UNL     1      75.716 119.151 168.654  0.00  0.00    +0.000 OA
ATOM     26  H   UNL     1      75.854 119.532 169.123  0.00  0.00    +0.000 HD
ENDBRANCH  10  25
TORSDOF 6
ENDMDL
MODEL 9
REMARK VINA RESULT:      -7.7     81.105     83.332
REMARK  Name = 9064
REMARK  6 active torsions:
REMARK  status: ('A' for Active; 'I' for Inactive)
REMARK    1  A    between atoms: O_2  and  C_7
REMARK    2  A    between atoms: O_3  and  C_13
REMARK    3  A    between atoms: O_4  and  C_18
REMARK    4  A    between atoms: O_5  and  C_19
REMARK    5  A    between atoms: O_6  and  C_21
REMARK    6  A    between atoms: C_8  and  C_12
REMARK                            x       y       z     vdW  Elec       q    Type
REMARK                         _______ _______ _______ _____ _____    ______ ____
ROOT
ATOM      1  O   UNL     1      98.468 130.967 165.218  0.00  0.00    +0.000 OA
ATOM      2  C   UNL     1      97.766 131.223 166.780  0.00  0.00    +0.000 C 
ATOM      3  C   UNL     1      98.383 130.712 166.181  0.00  0.00    +0.000 C 
ATOM      4  C   UNL     1      97.235 131.988 166.416  0.00  0.00    +0.000 C 
ATOM      5  C   UNL     1      97.321 132.242 165.453  0.00  0.00    +0.000 A 
ATOM      6  C   UNL     1      97.937 131.732 164.854  0.00  0.00    +0.000 A 
ATOM      7  C   UNL     1      96.762 133.041 165.088  0.00  0.00    +0.000 A 
ATOM      8  C   UNL     1      98.037 131.985 163.848  0.00  0.00    +0.000 A 
ATOM      9  C   UNL     1      96.846 133.312 164.085  0.00  0.00    +0.000 A 
ATOM     10  C   UNL     1      97.487 132.780 163.461  0.00  0.00    +0.000 A 
ENDROOT
BRANCH   3  11
ATOM     11  C   UNL     1      98.914 129.947 166.545  0.00  0.00    +0.000 A 
ATOM     12  C   UNL     1      98.541 129.020 166.514  0.00  0.00    +0.000 A 
ATOM     13  C   UNL     1      99.818 130.109 166.940  0.00  0.00    +0.000 A 
ATOM     14  C   UNL     1      99.072 128.255 166.878  0.00  0.00    +0.000 A 
ATOM     15  C   UNL     1     100.349 129.344 167.305  0.00  0.00    +0.000 A 
ATOM     16  C   UNL     1      99.976 128.417 167.274  0.00  0.00    +0.000 A 
BRANCH  14  17
ATOM     17  O   UNL     1      98.699 127.328 166.847  0.00  0.00    +0.000 OA
ATOM     18  H   UNL     1      98.092 127.234 166.937  0.00  0.00    +0.000 HD
ENDBRANCH  14  17
BRANCH  16  19
ATOM     19  O   UNL     1     100.507 127.652 167.638  0.00  0.00    +0.000 OA
ATOM     20  H   UNL     1     100.427 127.082 167.408  0.00  0.00    +0.000 HD
ENDBRANCH  16  19
ENDBRANCH   3  11
BRANCH   2  21
ATOM     21  O   UNL     1      97.681 130.969 167.744  0.00  0.00    +0.000 OA
ATOM     22  H   UNL     1      98.178 130.986 168.114  0.00  0.00    +0.000 HD
ENDBRANCH   2  21
BRANCH   7  23
ATOM     23  O   UNL     1      96.148 133.545 165.696  0.00  0.00    +0.000 OA
ATOM     24  H   UNL     1      95.603 133.299 165.859  0.00  0.00    +0.000 HD
ENDBRANCH   7  23
BRANCH  10  25
ATOM     25  O   UNL     1      97.575 133.032 162.498  0.00  0.00    +0.000 OA
ATOM     26  H   UNL     1      97.273 133.525 162.277  0.00  0.00    +0.000 HD
ENDBRANCH  10  25
TORSDOF 6
ENDMDL
