MODEL 1
REMARK VINA RESULT:      -9.4      0.000      0.000
REMARK  Name = 107905
REMARK  11 active torsions:
REMARK  status: ('A' for Active; 'I' for Inactive)
REMARK    1  A    between atoms: O_2  and  C_11
REMARK    2  A    between atoms: O_2  and  C_23
REMARK    3  A    between atoms: O_3  and  C_17
REMARK    4  A    between atoms: O_4  and  C_22
REMARK    5  A    between atoms: O_5  and  C_24
REMARK    6  A    between atoms: O_7  and  C_26
REMARK    7  A    between atoms: O_8  and  C_30
REMARK    8  A    between atoms: O_9  and  C_31
REMARK    9  A    between atoms: O_10  and  C_32
REMARK   10  A    between atoms: C_12  and  C_16
REMARK   11  A    between atoms: C_23  and  C_27
REMARK                            x       y       z     vdW  Elec       q    Type
REMARK                         _______ _______ _______ _____ _____    ______ ____
ROOT
ATOM      1  O   UNL     1     115.013 109.809 148.415  0.00  0.00    +0.000 OA
ATOM      2  C   UNL     1     113.583 110.235 147.536  0.00  0.00    +0.000 C 
ATOM      3  C   UNL     1     114.284 109.564 147.776  0.00  0.00    +0.000 C 
ATOM      4  C   UNL     1     113.611 111.152 147.933  0.00  0.00    +0.000 C 
ATOM      5  C   UNL     1     114.341 111.398 148.572  0.00  0.00    +0.000 A 
ATOM      6  C   UNL     1     115.042 110.726 148.813  0.00  0.00    +0.000 A 
ATOM      7  C   UNL     1     114.357 112.357 148.978  0.00  0.00    +0.000 A 
ATOM      8  C   UNL     1     115.808 110.967 149.476  0.00  0.00    +0.000 A 
ATOM      9  C   UNL     1     115.113 112.620 149.644  0.00  0.00    +0.000 A 
ATOM     10  C   UNL     1     115.844 111.921 149.895  0.00  0.00    +0.000 A 
ENDROOT
BRANCH   3  11
ATOM     11  C   UNL     1     114.256 108.647 147.379  0.00  0.00    +0.000 A 
ATOM     12  C   UNL     1     113.724 107.925 147.823  0.00  0.00    +0.000 A 
ATOM     13  C   UNL     1     114.759 108.451 146.537  0.00  0.00    +0.000 A 
ATOM     14  C   UNL     1     113.696 107.008 147.425  0.00  0.00    +0.000 A 
ATOM     15  C   UNL     1     114.730 107.534 146.139  0.00  0.00    +0.000 A 
ATOM     16  C   UNL     1     114.199 106.813 146.583  0.00  0.00    +0.000 A 
BRANCH  14  17
ATOM     17  O   UNL     1     113.164 106.287 147.869  0.00  0.00    +0.000 OA
ATOM     18  H   UNL     1     112.710 106.000 147.558  0.00  0.00    +0.000 HD
ENDBRANCH  14  17
BRANCH  16  19
ATOM     19  O   UNL     1     114.170 105.896 146.186  0.00  0.00    +0.000 OA
ATOM     20  H   UNL     1     114.691 105.563 146.136  0.00  0.00    +0.000 HD
ENDBRANCH  16  19
ENDBRANCH   3  11
BRANCH   7  21
ATOM     21  O   UNL     1     113.651 113.020 148.730  0.00  0.00    +0.000 OA
ATOM     22  H   UNL     1     113.377 113.360 149.170  0.00  0.00    +0.000 HD
ENDBRANCH   7  21
BRANCH  10  23
ATOM     23  O   UNL     1     116.574 112.163 150.533  0.00  0.00    +0.000 OA
ATOM     24  H   UNL     1     116.451 112.520 151.024  0.00  0.00    +0.000 HD
ENDBRANCH  10  23
BRANCH   2  25
ATOM     25  O   UNL     1     112.854 109.989 146.897  0.00  0.00    +0.000 OA
BRANCH  25  27
ATOM     26  O   UNL     1     111.483 110.338 147.897  0.00  0.00    +0.000 OA
ATOM     27  C   UNL     1     111.940 110.379 147.008  0.00  0.00    +0.000 C 
BRANCH  27  28
ATOM     28  C   UNL     1     111.482 110.810 146.231  0.00  0.00    +0.000 A 
ATOM     29  C   UNL     1     111.260 111.785 146.259  0.00  0.00    +0.000 A 
ATOM     30  C   UNL     1     111.247 110.267 145.425  0.00  0.00    +0.000 A 
ATOM     31  C   UNL     1     110.789 110.698 144.647  0.00  0.00    +0.000 A 
ATOM     32  C   UNL     1     110.802 112.216 145.481  0.00  0.00    +0.000 A 
ATOM     33  C   UNL     1     110.567 111.673 144.675  0.00  0.00    +0.000 A 
BRANCH  31  34
ATOM     34  O   UNL     1     110.554 110.155 143.841  0.00  0.00    +0.000 OA
ATOM     35  H   UNL     1     109.963 110.000 143.734  0.00  0.00    +0.000 HD
ENDBRANCH  31  34
BRANCH  32  36
ATOM     36  O   UNL     1     110.580 113.191 145.510  0.00  0.00    +0.000 OA
ATOM     37  H   UNL     1     110.871 113.586 145.131  0.00  0.00    +0.000 HD
ENDBRANCH  32  36
BRANCH  33  38
ATOM     38  O   UNL     1     110.109 112.104 143.898  0.00  0.00    +0.000 OA
ATOM     39  H   UNL     1     109.573 111.875 143.688  0.00  0.00    +0.000 HD
ENDBRANCH  33  38
ENDBRANCH  27  28
ENDBRANCH  25  27
ENDBRANCH   2  25
TORSDOF 11
ENDMDL
MODEL 2
REMARK VINA RESULT:      -9.2     38.043     39.066
REMARK  Name = 107905
REMARK  11 active torsions:
REMARK  status: ('A' for Active; 'I' for Inactive)
REMARK    1  A    between atoms: O_2  and  C_11
REMARK    2  A    between atoms: O_2  and  C_23
REMARK    3  A    between atoms: O_3  and  C_17
REMARK    4  A    between atoms: O_4  and  C_22
REMARK    5  A    between atoms: O_5  and  C_24
REMARK    6  A    between atoms: O_7  and  C_26
REMARK    7  A    between atoms: O_8  and  C_30
REMARK    8  A    between atoms: O_9  and  C_31
REMARK    9  A    between atoms: O_10  and  C_32
REMARK   10  A    between atoms: C_12  and  C_16
REMARK   11  A    between atoms: C_23  and  C_27
REMARK                            x       y       z     vdW  Elec       q    Type
REMARK                         _______ _______ _______ _____ _____    ______ ____
ROOT
ATOM      1  O   UNL     1     151.504 119.824 145.839  0.00  0.00    +0.000 OA
ATOM      2  C   UNL     1     150.761 120.207 144.322  0.00  0.00    +0.000 C 
ATOM      3  C   UNL     1     151.351 119.616 144.873  0.00  0.00    +0.000 C 
ATOM      4  C   UNL     1     150.325 121.005 144.737  0.00  0.00    +0.000 C 
ATOM      5  C   UNL     1     150.478 121.212 145.704  0.00  0.00    +0.000 A 
ATOM      6  C   UNL     1     151.068 120.622 146.254  0.00  0.00    +0.000 A 
ATOM      7  C   UNL     1     150.017 122.047 146.122  0.00  0.00    +0.000 A 
ATOM      8  C   UNL     1     151.237 120.825 147.262  0.00  0.00    +0.000 A 
ATOM      9  C   UNL     1     150.172 122.270 147.128  0.00  0.00    +0.000 A 
ATOM     10  C   UNL     1     150.786 121.654 147.702  0.00  0.00    +0.000 A 
ENDROOT
BRANCH   3  11
ATOM     11  C   UNL     1     151.787 118.818 144.457  0.00  0.00    +0.000 A 
ATOM     12  C   UNL     1     151.412 117.905 144.614  0.00  0.00    +0.000 A 
ATOM     13  C   UNL     1     152.600 118.934 143.885  0.00  0.00    +0.000 A 
ATOM     14  C   UNL     1     151.848 117.107 144.198  0.00  0.00    +0.000 A 
ATOM     15  C   UNL     1     153.036 118.136 143.470  0.00  0.00    +0.000 A 
ATOM     16  C   UNL     1     152.660 117.222 143.626  0.00  0.00    +0.000 A 
BRANCH  14  17
ATOM     17  O   UNL     1     151.473 116.193 144.355  0.00  0.00    +0.000 OA
ATOM     18  H   UNL     1     151.741 115.814 144.765  0.00  0.00    +0.000 HD
ENDBRANCH  14  17
BRANCH  16  19
ATOM     19  O   UNL     1     153.097 116.424 143.211  0.00  0.00    +0.000 OA
ATOM     20  H   UNL     1     153.071 115.874 143.495  0.00  0.00    +0.000 HD
ENDBRANCH  16  19
ENDBRANCH   3  11
BRANCH   7  21
ATOM     21  O   UNL     1     149.429 122.631 145.562  0.00  0.00    +0.000 OA
ATOM     22  H   UNL     1     148.950 122.928 145.821  0.00  0.00    +0.000 HD
ENDBRANCH   7  21
BRANCH  10  23
ATOM     23  O   UNL     1     150.942 121.859 148.668  0.00  0.00    +0.000 OA
ATOM     24  H   UNL     1     150.472 122.053 149.023  0.00  0.00    +0.000 HD
ENDBRANCH  10  23
BRANCH   2  25
ATOM     25  O   UNL     1     150.608 120.000 143.356  0.00  0.00    +0.000 OA
BRANCH  25  27
ATOM     26  O   UNL     1     148.913 120.355 143.316  0.00  0.00    +0.000 OA
ATOM     27  C   UNL     1     149.814 120.381 142.882  0.00  0.00    +0.000 C 
BRANCH  27  28
ATOM     28  C   UNL     1     149.920 120.789 141.976  0.00  0.00    +0.000 A 
ATOM     29  C   UNL     1     150.079 121.772 141.885  0.00  0.00    +0.000 A 
ATOM     30  C   UNL     1     149.869 120.213 141.160  0.00  0.00    +0.000 A 
ATOM     31  C   UNL     1     149.975 120.621 140.253  0.00  0.00    +0.000 A 
ATOM     32  C   UNL     1     150.185 122.180 140.978  0.00  0.00    +0.000 A 
ATOM     33  C   UNL     1     150.134 121.604 140.162  0.00  0.00    +0.000 A 
BRANCH  31  34
ATOM     34  O   UNL     1     149.924 120.045 139.437  0.00  0.00    +0.000 OA
ATOM     35  H   UNL     1     150.182 119.482 139.438  0.00  0.00    +0.000 HD
ENDBRANCH  31  34
BRANCH  32  36
ATOM     36  O   UNL     1     150.344 123.163 140.887  0.00  0.00    +0.000 OA
ATOM     37  H   UNL     1     150.199 123.544 141.354  0.00  0.00    +0.000 HD
ENDBRANCH  32  36
BRANCH  33  38
ATOM     38  O   UNL     1     150.240 122.012 139.255  0.00  0.00    +0.000 OA
ATOM     39  H   UNL     1     149.756 122.039 138.869  0.00  0.00    +0.000 HD
ENDBRANCH  33  38
ENDBRANCH  27  28
ENDBRANCH  25  27
ENDBRANCH   2  25
TORSDOF 11
ENDMDL
MODEL 3
REMARK VINA RESULT:      -8.9     63.442     66.030
REMARK  Name = 107905
REMARK  11 active torsions:
REMARK  status: ('A' for Active; 'I' for Inactive)
REMARK    1  A    between atoms: O_2  and  C_11
REMARK    2  A    between atoms: O_2  and  C_23
REMARK    3  A    between atoms: O_3  and  C_17
REMARK    4  A    between atoms: O_4  and  C_22
REMARK    5  A    between atoms: O_5  and  C_24
REMARK    6  A    between atoms: O_7  and  C_26
REMARK    7  A    between atoms: O_8  and  C_30
REMARK    8  A    between atoms: O_9  and  C_31
REMARK    9  A    between atoms: O_10  and  C_32
REMARK   10  A    between atoms: C_12  and  C_16
REMARK   11  A    between atoms: C_23  and  C_27
REMARK                            x       y       z     vdW  Elec       q    Type
REMARK                         _______ _______ _______ _____ _____    ______ ____
ROOT
ATOM      1  O   UNL     1     117.958 136.348  86.090  0.00  0.00    +0.000 OA
ATOM      2  C   UNL     1     118.940 134.930  86.245  0.00  0.00    +0.000 C 
ATOM      3  C   UNL     1     118.764 135.889  86.465  0.00  0.00    +0.000 C 
ATOM      4  C   UNL     1     118.310 134.429  85.651  0.00  0.00    +0.000 C 
ATOM      5  C   UNL     1     117.504 134.888  85.277  0.00  0.00    +0.000 A 
ATOM      6  C   UNL     1     117.328 135.847  85.496  0.00  0.00    +0.000 A 
ATOM      7  C   UNL     1     116.858 134.353  84.660  0.00  0.00    +0.000 A 
ATOM      8  C   UNL     1     116.493 136.339  85.114  0.00  0.00    +0.000 A 
ATOM      9  C   UNL     1     116.016 134.824  84.266  0.00  0.00    +0.000 A 
ATOM     10  C   UNL     1     115.833 135.824  84.495  0.00  0.00    +0.000 A 
ENDROOT
BRANCH   3  11
ATOM     11  C   UNL     1     119.393 136.390  87.059  0.00  0.00    +0.000 A 
ATOM     12  C   UNL     1     120.117 136.953  86.659  0.00  0.00    +0.000 A 
ATOM     13  C   UNL     1     119.300 136.328  88.052  0.00  0.00    +0.000 A 
ATOM     14  C   UNL     1     120.746 137.454  87.253  0.00  0.00    +0.000 A 
ATOM     15  C   UNL     1     119.930 136.828  88.646  0.00  0.00    +0.000 A 
ATOM     16  C   UNL     1     120.653 137.392  88.246  0.00  0.00    +0.000 A 
BRANCH  14  17
ATOM     17  O   UNL     1     121.469 138.018  86.853  0.00  0.00    +0.000 OA
ATOM     18  H   UNL     1     122.063 137.903  86.989  0.00  0.00    +0.000 HD
ENDBRANCH  14  17
BRANCH  16  19
ATOM     19  O   UNL     1     121.283 137.893  88.840  0.00  0.00    +0.000 OA
ATOM     20  H   UNL     1     121.142 137.980  89.438  0.00  0.00    +0.000 HD
ENDBRANCH  16  19
ENDBRANCH   3  11
BRANCH   7  21
ATOM     21  O   UNL     1     117.044 133.393  84.447  0.00  0.00    +0.000 OA
ATOM     22  H   UNL     1     117.025 132.967  84.897  0.00  0.00    +0.000 HD
ENDBRANCH   7  21
BRANCH  10  23
ATOM     23  O   UNL     1     115.028 136.286  84.122  0.00  0.00    +0.000 OA
ATOM     24  H   UNL     1     114.470 136.188  84.374  0.00  0.00    +0.000 HD
ENDBRANCH  10  23
BRANCH   2  25
ATOM     25  O   UNL     1     119.746 134.471  86.620  0.00  0.00    +0.000 OA
BRANCH  25  27
ATOM     26  O   UNL     1     120.122 133.741  85.095  0.00  0.00    +0.000 OA
ATOM     27  C   UNL     1     120.206 133.758  86.091  0.00  0.00    +0.000 C 
BRANCH  27  28
ATOM     28  C   UNL     1     120.750 133.061  86.559  0.00  0.00    +0.000 A 
ATOM     29  C   UNL     1     120.749 133.013  87.558  0.00  0.00    +0.000 A 
ATOM     30  C   UNL     1     121.294 132.412  86.027  0.00  0.00    +0.000 A 
ATOM     31  C   UNL     1     121.838 131.715  86.495  0.00  0.00    +0.000 A 
ATOM     32  C   UNL     1     121.294 132.317  88.025  0.00  0.00    +0.000 A 
ATOM     33  C   UNL     1     121.838 131.668  87.494  0.00  0.00    +0.000 A 
BRANCH  31  34
ATOM     34  O   UNL     1     122.383 131.066  85.964  0.00  0.00    +0.000 OA
ATOM     35  H   UNL     1     123.001 131.069  86.010  0.00  0.00    +0.000 HD
ENDBRANCH  31  34
BRANCH  32  36
ATOM     36  O   UNL     1     121.293 132.269  89.024  0.00  0.00    +0.000 OA
ATOM     37  H   UNL     1     121.099 132.755  89.357  0.00  0.00    +0.000 HD
ENDBRANCH  32  36
BRANCH  33  38
ATOM     38  O   UNL     1     122.382 130.971  87.961  0.00  0.00    +0.000 OA
ATOM     39  H   UNL     1     122.672 130.532  87.633  0.00  0.00    +0.000 HD
ENDBRANCH  33  38
ENDBRANCH  27  28
ENDBRANCH  25  27
ENDBRANCH   2  25
TORSDOF 11
ENDMDL
MODEL 4
REMARK VINA RESULT:      -8.7     22.729     25.958
REMARK  Name = 107905
REMARK  11 active torsions:
REMARK  status: ('A' for Active; 'I' for Inactive)
REMARK    1  A    between atoms: O_2  and  C_11
REMARK    2  A    between atoms: O_2  and  C_23
REMARK    3  A    between atoms: O_3  and  C_17
REMARK    4  A    between atoms: O_4  and  C_22
REMARK    5  A    between atoms: O_5  and  C_24
REMARK    6  A    between atoms: O_7  and  C_26
REMARK    7  A    between atoms: O_8  and  C_30
REMARK    8  A    between atoms: O_9  and  C_31
REMARK    9  A    between atoms: O_10  and  C_32
REMARK   10  A    between atoms: C_12  and  C_16
REMARK   11  A    between atoms: C_23  and  C_27
REMARK                            x       y       z     vdW  Elec       q    Type
REMARK                         _______ _______ _______ _____ _____    ______ ____
ROOT
ATOM      1  O   UNL     1     125.826  90.089 138.428  0.00  0.00    +0.000 OA
ATOM      2  C   UNL     1     125.653  90.578 136.775  0.00  0.00    +0.000 C 
ATOM      3  C   UNL     1     125.807  89.860 137.454  0.00  0.00    +0.000 C 
ATOM      4  C   UNL     1     125.517  91.524 137.069  0.00  0.00    +0.000 C 
ATOM      5  C   UNL     1     125.536  91.753 138.042  0.00  0.00    +0.000 A 
ATOM      6  C   UNL     1     125.691  91.035 138.722  0.00  0.00    +0.000 A 
ATOM      7  C   UNL     1     125.393  92.743 138.333  0.00  0.00    +0.000 A 
ATOM      8  C   UNL     1     125.713  91.258 139.739  0.00  0.00    +0.000 A 
ATOM      9  C   UNL     1     125.412  92.989 139.345  0.00  0.00    +0.000 A 
ATOM     10  C   UNL     1     125.573  92.241 140.053  0.00  0.00    +0.000 A 
ENDROOT
BRANCH   3  11
ATOM     11  C   UNL     1     125.943  88.914 137.160  0.00  0.00    +0.000 A 
ATOM     12  C   UNL     1     126.838  88.617 136.828  0.00  0.00    +0.000 A 
ATOM     13  C   UNL     1     125.183  88.265 137.198  0.00  0.00    +0.000 A 
ATOM     14  C   UNL     1     126.974  87.671 136.534  0.00  0.00    +0.000 A 
ATOM     15  C   UNL     1     125.319  87.319 136.904  0.00  0.00    +0.000 A 
ATOM     16  C   UNL     1     126.214  87.022 136.572  0.00  0.00    +0.000 A 
BRANCH  14  17
ATOM     17  O   UNL     1     127.869  87.374 136.203  0.00  0.00    +0.000 OA
ATOM     18  H   UNL     1     128.277  87.120 136.595  0.00  0.00    +0.000 HD
ENDBRANCH  14  17
BRANCH  16  19
ATOM     19  O   UNL     1     126.350  86.076 136.278  0.00  0.00    +0.000 OA
ATOM     20  H   UNL     1     125.861  85.724 136.132  0.00  0.00    +0.000 HD
ENDBRANCH  16  19
ENDBRANCH   3  11
BRANCH   7  21
ATOM     21  O   UNL     1     125.239  93.452 137.645  0.00  0.00    +0.000 OA
ATOM     22  H   UNL     1     124.674  93.532 137.404  0.00  0.00    +0.000 HD
ENDBRANCH   7  21
BRANCH  10  23
ATOM     23  O   UNL     1     125.592  92.466 141.027  0.00  0.00    +0.000 OA
ATOM     24  H   UNL     1     125.795  92.049 141.437  0.00  0.00    +0.000 HD
ENDBRANCH  10  23
BRANCH   2  25
ATOM     25  O   UNL     1     125.634  90.349 135.802  0.00  0.00    +0.000 OA
BRANCH  25  27
ATOM     26  O   UNL     1     124.298  91.316 135.273  0.00  0.00    +0.000 OA
ATOM     27  C   UNL     1     125.234  90.989 135.145  0.00  0.00    +0.000 C 
BRANCH  27  28
ATOM     28  C   UNL     1     125.771  91.302 134.362  0.00  0.00    +0.000 A 
ATOM     29  C   UNL     1     126.257  90.639 133.792  0.00  0.00    +0.000 A 
ATOM     30  C   UNL     1     125.821  92.277 134.147  0.00  0.00    +0.000 A 
ATOM     31  C   UNL     1     126.357  92.590 133.364  0.00  0.00    +0.000 A 
ATOM     32  C   UNL     1     126.794  90.952 133.009  0.00  0.00    +0.000 A 
ATOM     33  C   UNL     1     126.844  91.927 132.794  0.00  0.00    +0.000 A 
BRANCH  31  34
ATOM     34  O   UNL     1     126.407  93.565 133.149  0.00  0.00    +0.000 OA
ATOM     35  H   UNL     1     126.853  93.916 133.401  0.00  0.00    +0.000 HD
ENDBRANCH  31  34
BRANCH  32  36
ATOM     36  O   UNL     1     127.280  90.289 132.439  0.00  0.00    +0.000 OA
ATOM     37  H   UNL     1     127.016  89.746 132.301  0.00  0.00    +0.000 HD
ENDBRANCH  32  36
BRANCH  33  38
ATOM     38  O   UNL     1     127.380  92.240 132.011  0.00  0.00    +0.000 OA
ATOM     39  H   UNL     1     127.977  92.079 131.959  0.00  0.00    +0.000 HD
ENDBRANCH  33  38
ENDBRANCH  27  28
ENDBRANCH  25  27
ENDBRANCH   2  25
TORSDOF 11
ENDMDL
MODEL 5
REMARK VINA RESULT:      -8.7     64.215     65.708
REMARK  Name = 107905
REMARK  11 active torsions:
REMARK  status: ('A' for Active; 'I' for Inactive)
REMARK    1  A    between atoms: O_2  and  C_11
REMARK    2  A    between atoms: O_2  and  C_23
REMARK    3  A    between atoms: O_3  and  C_17
REMARK    4  A    between atoms: O_4  and  C_22
REMARK    5  A    between atoms: O_5  and  C_24
REMARK    6  A    between atoms: O_7  and  C_26
REMARK    7  A    between atoms: O_8  and  C_30
REMARK    8  A    between atoms: O_9  and  C_31
REMARK    9  A    between atoms: O_10  and  C_32
REMARK   10  A    between atoms: C_12  and  C_16
REMARK   11  A    between atoms: C_23  and  C_27
REMARK                            x       y       z     vdW  Elec       q    Type
REMARK                         _______ _______ _______ _____ _____    ______ ____
ROOT
ATOM      1  O   UNL     1     118.491 134.846  85.805  0.00  0.00    +0.000 OA
ATOM      2  C   UNL     1     119.880 133.927  86.280  0.00  0.00    +0.000 C 
ATOM      3  C   UNL     1     119.108 134.073  85.661  0.00  0.00    +0.000 C 
ATOM      4  C   UNL     1     120.034 134.555  87.043  0.00  0.00    +0.000 C 
ATOM      5  C   UNL     1     119.417 135.329  87.186  0.00  0.00    +0.000 A 
ATOM      6  C   UNL     1     118.645 135.474  86.567  0.00  0.00    +0.000 A 
ATOM      7  C   UNL     1     119.591 135.975  87.985  0.00  0.00    +0.000 A 
ATOM      8  C   UNL     1     117.994 136.276  86.704  0.00  0.00    +0.000 A 
ATOM      9  C   UNL     1     118.952 136.783  88.141  0.00  0.00    +0.000 A 
ATOM     10  C   UNL     1     118.148 136.934  87.496  0.00  0.00    +0.000 A 
ENDROOT
BRANCH   3  11
ATOM     11  C   UNL     1     118.954 133.445  84.899  0.00  0.00    +0.000 A 
ATOM     12  C   UNL     1     118.280 132.711  84.984  0.00  0.00    +0.000 A 
ATOM     13  C   UNL     1     119.473 133.550  84.051  0.00  0.00    +0.000 A 
ATOM     14  C   UNL     1     118.125 132.083  84.222  0.00  0.00    +0.000 A 
ATOM     15  C   UNL     1     119.318 132.922  83.288  0.00  0.00    +0.000 A 
ATOM     16  C   UNL     1     118.644 132.188  83.374  0.00  0.00    +0.000 A 
BRANCH  14  17
ATOM     17  O   UNL     1     117.451 131.349  84.307  0.00  0.00    +0.000 OA
ATOM     18  H   UNL     1     116.996 131.295  83.889  0.00  0.00    +0.000 HD
ENDBRANCH  14  17
BRANCH  16  19
ATOM     19  O   UNL     1     118.490 131.560  82.611  0.00  0.00    +0.000 OA
ATOM     20  H   UNL     1     118.785 131.647  82.073  0.00  0.00    +0.000 HD
ENDBRANCH  16  19
ENDBRANCH   3  11
BRANCH   7  21
ATOM     21  O   UNL     1     120.366 135.820  88.598  0.00  0.00    +0.000 OA
ATOM     22  H   UNL     1     120.593 136.288  88.935  0.00  0.00    +0.000 HD
ENDBRANCH   7  21
BRANCH  10  23
ATOM     23  O   UNL     1     117.529 137.706  87.637  0.00  0.00    +0.000 OA
ATOM     24  H   UNL     1     117.098 137.681  88.081  0.00  0.00    +0.000 HD
ENDBRANCH  10  23
BRANCH   2  25
ATOM     25  O   UNL     1     120.497 133.154  86.137  0.00  0.00    +0.000 OA
BRANCH  25  27
ATOM     26  O   UNL     1     120.758 133.034  87.845  0.00  0.00    +0.000 OA
ATOM     27  C   UNL     1     120.884 132.670  86.922  0.00  0.00    +0.000 C 
BRANCH  27  28
ATOM     28  C   UNL     1     121.396 131.823  86.784  0.00  0.00    +0.000 A 
ATOM     29  C   UNL     1     121.023 131.101  86.201  0.00  0.00    +0.000 A 
ATOM     30  C   UNL     1     122.283 131.697  87.230  0.00  0.00    +0.000 A 
ATOM     31  C   UNL     1     122.795 130.849  87.092  0.00  0.00    +0.000 A 
ATOM     32  C   UNL     1     121.536 130.254  86.064  0.00  0.00    +0.000 A 
ATOM     33  C   UNL     1     122.422 130.128  86.509  0.00  0.00    +0.000 A 
BRANCH  31  34
ATOM     34  O   UNL     1     123.682 130.723  87.538  0.00  0.00    +0.000 OA
ATOM     35  H   UNL     1     124.035 131.215  87.670  0.00  0.00    +0.000 HD
ENDBRANCH  31  34
BRANCH  32  36
ATOM     36  O   UNL     1     121.162 129.533  85.480  0.00  0.00    +0.000 OA
ATOM     37  H   UNL     1     121.371 129.464  84.901  0.00  0.00    +0.000 HD
ENDBRANCH  32  36
BRANCH  33  38
ATOM     38  O   UNL     1     122.934 129.280  86.372  0.00  0.00    +0.000 OA
ATOM     39  H   UNL     1     123.485 129.294  86.087  0.00  0.00    +0.000 HD
ENDBRANCH  33  38
ENDBRANCH  27  28
ENDBRANCH  25  27
ENDBRANCH   2  25
TORSDOF 11
ENDMDL
MODEL 6
REMARK VINA RESULT:      -8.6     22.742     26.451
REMARK  Name = 107905
REMARK  11 active torsions:
REMARK  status: ('A' for Active; 'I' for Inactive)
REMARK    1  A    between atoms: O_2  and  C_11
REMARK    2  A    between atoms: O_2  and  C_23
REMARK    3  A    between atoms: O_3  and  C_17
REMARK    4  A    between atoms: O_4  and  C_22
REMARK    5  A    between atoms: O_5  and  C_24
REMARK    6  A    between atoms: O_7  and  C_26
REMARK    7  A    between atoms: O_8  and  C_30
REMARK    8  A    between atoms: O_9  and  C_31
REMARK    9  A    between atoms: O_10  and  C_32
REMARK   10  A    between atoms: C_12  and  C_16
REMARK   11  A    between atoms: C_23  and  C_27
REMARK                            x       y       z     vdW  Elec       q    Type
REMARK                         _______ _______ _______ _____ _____    ______ ____
ROOT
ATOM      1  O   UNL     1     126.283  89.424 138.421  0.00  0.00    +0.000 OA
ATOM      2  C   UNL     1     126.062  89.943 136.783  0.00  0.00    +0.000 C 
ATOM      3  C   UNL     1     126.009  90.127 137.764  0.00  0.00    +0.000 C 
ATOM      4  C   UNL     1     126.388  89.055 136.458  0.00  0.00    +0.000 C 
ATOM      5  C   UNL     1     126.662  88.352 137.114  0.00  0.00    +0.000 A 
ATOM      6  C   UNL     1     126.609  88.537 138.095  0.00  0.00    +0.000 A 
ATOM      7  C   UNL     1     127.000  87.433 136.760  0.00  0.00    +0.000 A 
ATOM      8  C   UNL     1     126.891  87.814 138.791  0.00  0.00    +0.000 A 
ATOM      9  C   UNL     1     127.287  86.695 137.437  0.00  0.00    +0.000 A 
ATOM     10  C   UNL     1     127.232  86.888 138.460  0.00  0.00    +0.000 A 
ENDROOT
BRANCH   3  11
ATOM     11  C   UNL     1     125.683  91.015 138.090  0.00  0.00    +0.000 A 
ATOM     12  C   UNL     1     124.705  91.166 138.234  0.00  0.00    +0.000 A 
ATOM     13  C   UNL     1     126.334  91.752 138.270  0.00  0.00    +0.000 A 
ATOM     14  C   UNL     1     124.379  92.053 138.559  0.00  0.00    +0.000 A 
ATOM     15  C   UNL     1     126.008  92.639 138.595  0.00  0.00    +0.000 A 
ATOM     16  C   UNL     1     125.030  92.790 138.740  0.00  0.00    +0.000 A 
BRANCH  14  17
ATOM     17  O   UNL     1     123.401  92.204 138.704  0.00  0.00    +0.000 OA
ATOM     18  H   UNL     1     123.084  92.574 138.321  0.00  0.00    +0.000 HD
ENDBRANCH  14  17
BRANCH  16  19
ATOM     19  O   UNL     1     124.704  93.677 139.065  0.00  0.00    +0.000 OA
ATOM     20  H   UNL     1     124.107  93.753 139.214  0.00  0.00    +0.000 HD
ENDBRANCH  16  19
ENDBRANCH   3  11
BRANCH   7  21
ATOM     21  O   UNL     1     127.048  87.259 135.776  0.00  0.00    +0.000 OA
ATOM     22  H   UNL     1     126.582  86.968 135.490  0.00  0.00    +0.000 HD
ENDBRANCH   7  21
BRANCH  10  23
ATOM     23  O   UNL     1     127.505  86.187 139.119  0.00  0.00    +0.000 OA
ATOM     24  H   UNL     1     127.847  85.704 138.934  0.00  0.00    +0.000 HD
ENDBRANCH  10  23
BRANCH   2  25
ATOM     25  O   UNL     1     125.788  90.646 136.127  0.00  0.00    +0.000 OA
BRANCH  25  27
ATOM     26  O   UNL     1     124.904  89.660 135.010  0.00  0.00    +0.000 OA
ATOM     27  C   UNL     1     125.563  90.392 135.186  0.00  0.00    +0.000 C 
BRANCH  27  28
ATOM     28  C   UNL     1     125.997  90.869 134.422  0.00  0.00    +0.000 A 
ATOM     29  C   UNL     1     125.930  91.864 134.351  0.00  0.00    +0.000 A 
ATOM     30  C   UNL     1     126.498  90.351 133.729  0.00  0.00    +0.000 A 
ATOM     31  C   UNL     1     126.932  90.828 132.964  0.00  0.00    +0.000 A 
ATOM     32  C   UNL     1     126.364  92.341 133.586  0.00  0.00    +0.000 A 
ATOM     33  C   UNL     1     126.865  91.823 132.893  0.00  0.00    +0.000 A 
BRANCH  31  34
ATOM     34  O   UNL     1     127.433  90.309 132.271  0.00  0.00    +0.000 OA
ATOM     35  H   UNL     1     128.049  90.364 132.228  0.00  0.00    +0.000 HD
ENDBRANCH  31  34
BRANCH  32  36
ATOM     36  O   UNL     1     126.297  93.336 133.515  0.00  0.00    +0.000 OA
ATOM     37  H   UNL     1     126.732  93.655 133.210  0.00  0.00    +0.000 HD
ENDBRANCH  32  36
BRANCH  33  38
ATOM     38  O   UNL     1     127.298  92.300 132.129  0.00  0.00    +0.000 OA
ATOM     39  H   UNL     1     126.986  92.735 131.818  0.00  0.00    +0.000 HD
ENDBRANCH  33  38
ENDBRANCH  27  28
ENDBRANCH  25  27
ENDBRANCH   2  25
TORSDOF 11
ENDMDL
MODEL 7
REMARK VINA RESULT:      -8.6      1.274      5.744
REMARK  Name = 107905
REMARK  11 active torsions:
REMARK  status: ('A' for Active; 'I' for Inactive)
REMARK    1  A    between atoms: O_2  and  C_11
REMARK    2  A    between atoms: O_2  and  C_23
REMARK    3  A    between atoms: O_3  and  C_17
REMARK    4  A    between atoms: O_4  and  C_22
REMARK    5  A    between atoms: O_5  and  C_24
REMARK    6  A    between atoms: O_7  and  C_26
REMARK    7  A    between atoms: O_8  and  C_30
REMARK    8  A    between atoms: O_9  and  C_31
REMARK    9  A    between atoms: O_10  and  C_32
REMARK   10  A    between atoms: C_12  and  C_16
REMARK   11  A    between atoms: C_23  and  C_27
REMARK                            x       y       z     vdW  Elec       q    Type
REMARK                         _______ _______ _______ _____ _____    ______ ____
ROOT
ATOM      1  O   UNL     1     112.768 112.178 147.175  0.00  0.00    +0.000 OA
ATOM      2  C   UNL     1     113.419 110.600 147.471  0.00  0.00    +0.000 C 
ATOM      3  C   UNL     1     113.422 111.585 147.645  0.00  0.00    +0.000 C 
ATOM      4  C   UNL     1     112.763 110.208 146.826  0.00  0.00    +0.000 C 
ATOM      5  C   UNL     1     112.109 110.801 146.355  0.00  0.00    +0.000 A 
ATOM      6  C   UNL     1     112.112 111.786 146.530  0.00  0.00    +0.000 A 
ATOM      7  C   UNL     1     111.432 110.378 145.686  0.00  0.00    +0.000 A 
ATOM      8  C   UNL     1     111.438 112.417 146.047  0.00  0.00    +0.000 A 
ATOM      9  C   UNL     1     110.749 110.990 145.192  0.00  0.00    +0.000 A 
ATOM     10  C   UNL     1     110.752 112.016 145.374  0.00  0.00    +0.000 A 
ENDROOT
BRANCH   3  11
ATOM     11  C   UNL     1     114.078 111.976 148.290  0.00  0.00    +0.000 A 
ATOM     12  C   UNL     1     114.903 112.428 147.952  0.00  0.00    +0.000 A 
ATOM     13  C   UNL     1     113.909 111.916 149.274  0.00  0.00    +0.000 A 
ATOM     14  C   UNL     1     115.559 112.820 148.597  0.00  0.00    +0.000 A 
ATOM     15  C   UNL     1     114.565 112.307 149.919  0.00  0.00    +0.000 A 
ATOM     16  C   UNL     1     115.390 112.759 149.580  0.00  0.00    +0.000 A 
BRANCH  14  17
ATOM     17  O   UNL     1     116.384 113.272 148.258  0.00  0.00    +0.000 OA
ATOM     18  H   UNL     1     116.830 112.939 147.983  0.00  0.00    +0.000 HD
ENDBRANCH  14  17
BRANCH  16  19
ATOM     19  O   UNL     1     116.046 113.151 150.225  0.00  0.00    +0.000 OA
ATOM     20  H   UNL     1     115.962 113.726 150.443  0.00  0.00    +0.000 HD
ENDBRANCH  16  19
ENDBRANCH   3  11
BRANCH   7  21
ATOM     21  O   UNL     1     111.438 109.392 145.519  0.00  0.00    +0.000 OA
ATOM     22  H   UNL     1     111.021 109.140 145.137  0.00  0.00    +0.000 HD
ENDBRANCH   7  21
BRANCH  10  23
ATOM     23  O   UNL     1     110.100 112.612 144.905  0.00  0.00    +0.000 OA
ATOM     24  H   UNL     1     109.513 112.645 145.102  0.00  0.00    +0.000 HD
ENDBRANCH  10  23
BRANCH   2  25
ATOM     25  O   UNL     1     114.072 110.007 147.941  0.00  0.00    +0.000 OA
BRANCH  25  27
ATOM     26  O   UNL     1     114.760 109.094 146.640  0.00  0.00    +0.000 OA
ATOM     27  C   UNL     1     114.327 109.127 147.541  0.00  0.00    +0.000 C 
BRANCH  27  28
ATOM     28  C   UNL     1     114.149 108.279 148.041  0.00  0.00    +0.000 A 
ATOM     29  C   UNL     1     113.681 107.521 147.588  0.00  0.00    +0.000 A 
ATOM     30  C   UNL     1     114.440 108.191 148.994  0.00  0.00    +0.000 A 
ATOM     31  C   UNL     1     114.262 107.343 149.494  0.00  0.00    +0.000 A 
ATOM     32  C   UNL     1     113.503 106.673 148.088  0.00  0.00    +0.000 A 
ATOM     33  C   UNL     1     113.794 106.584 149.041  0.00  0.00    +0.000 A 
BRANCH  31  34
ATOM     34  O   UNL     1     114.552 107.255 150.447  0.00  0.00    +0.000 OA
ATOM     35  H   UNL     1     114.525 107.744 150.826  0.00  0.00    +0.000 HD
ENDBRANCH  31  34
BRANCH  32  36
ATOM     36  O   UNL     1     113.035 105.914 147.636  0.00  0.00    +0.000 OA
ATOM     37  H   UNL     1     112.439 105.970 147.474  0.00  0.00    +0.000 HD
ENDBRANCH  32  36
BRANCH  33  38
ATOM     38  O   UNL     1     113.616 105.737 149.541  0.00  0.00    +0.000 OA
ATOM     39  H   UNL     1     113.537 105.751 150.156  0.00  0.00    +0.000 HD
ENDBRANCH  33  38
ENDBRANCH  27  28
ENDBRANCH  25  27
ENDBRANCH   2  25
TORSDOF 11
ENDMDL
MODEL 8
REMARK VINA RESULT:      -8.5      1.209      5.409
REMARK  Name = 107905
REMARK  11 active torsions:
REMARK  status: ('A' for Active; 'I' for Inactive)
REMARK    1  A    between atoms: O_2  and  C_11
REMARK    2  A    between atoms: O_2  and  C_23
REMARK    3  A    between atoms: O_3  and  C_17
REMARK    4  A    between atoms: O_4  and  C_22
REMARK    5  A    between atoms: O_5  and  C_24
REMARK    6  A    between atoms: O_7  and  C_26
REMARK    7  A    between atoms: O_8  and  C_30
REMARK    8  A    between atoms: O_9  and  C_31
REMARK    9  A    between atoms: O_10  and  C_32
REMARK   10  A    between atoms: C_12  and  C_16
REMARK   11  A    between atoms: C_23  and  C_27
REMARK                            x       y       z     vdW  Elec       q    Type
REMARK                         _______ _______ _______ _____ _____    ______ ____
ROOT
ATOM      1  O   UNL     1     112.644 112.139 147.238  0.00  0.00    +0.000 OA
ATOM      2  C   UNL     1     113.271 110.527 147.316  0.00  0.00    +0.000 C 
ATOM      3  C   UNL     1     113.283 111.477 147.628  0.00  0.00    +0.000 C 
ATOM      4  C   UNL     1     112.620 110.240 146.614  0.00  0.00    +0.000 C 
ATOM      5  C   UNL     1     111.981 110.902 146.224  0.00  0.00    +0.000 A 
ATOM      6  C   UNL     1     111.993 111.852 146.536  0.00  0.00    +0.000 A 
ATOM      7  C   UNL     1     111.308 110.588 145.493  0.00  0.00    +0.000 A 
ATOM      8  C   UNL     1     111.333 112.554 146.139  0.00  0.00    +0.000 A 
ATOM      9  C   UNL     1     110.639 111.273 145.082  0.00  0.00    +0.000 A 
ATOM     10  C   UNL     1     110.652 112.262 145.407  0.00  0.00    +0.000 A 
ENDROOT
BRANCH   3  11
ATOM     11  C   UNL     1     113.935 111.764 148.330  0.00  0.00    +0.000 A 
ATOM     12  C   UNL     1     113.695 111.682 149.298  0.00  0.00    +0.000 A 
ATOM     13  C   UNL     1     114.826 112.133 148.065  0.00  0.00    +0.000 A 
ATOM     14  C   UNL     1     114.347 111.969 150.000  0.00  0.00    +0.000 A 
ATOM     15  C   UNL     1     115.477 112.420 148.768  0.00  0.00    +0.000 A 
ATOM     16  C   UNL     1     115.237 112.338 149.735  0.00  0.00    +0.000 A 
BRANCH  14  17
ATOM     17  O   UNL     1     114.107 111.888 150.968  0.00  0.00    +0.000 OA
ATOM     18  H   UNL     1     114.193 111.350 151.264  0.00  0.00    +0.000 HD
ENDBRANCH  14  17
BRANCH  16  19
ATOM     19  O   UNL     1     115.889 112.626 150.437  0.00  0.00    +0.000 OA
ATOM     20  H   UNL     1     115.983 112.270 150.937  0.00  0.00    +0.000 HD
ENDBRANCH  16  19
ENDBRANCH   3  11
BRANCH   7  21
ATOM     21  O   UNL     1     111.305 109.635 145.188  0.00  0.00    +0.000 OA
ATOM     22  H   UNL     1     111.769 109.258 145.348  0.00  0.00    +0.000 HD
ENDBRANCH   7  21
BRANCH  10  23
ATOM     23  O   UNL     1     110.014 112.928 145.020  0.00  0.00    +0.000 OA
ATOM     24  H   UNL     1     109.406 112.874 145.128  0.00  0.00    +0.000 HD
ENDBRANCH  10  23
BRANCH   2  25
ATOM     25  O   UNL     1     113.911 109.864 147.706  0.00  0.00    +0.000 OA
BRANCH  25  27
ATOM     26  O   UNL     1     112.875 108.519 148.048  0.00  0.00    +0.000 OA
ATOM     27  C   UNL     1     113.714 108.885 147.647  0.00  0.00    +0.000 C 
BRANCH  27  28
ATOM     28  C   UNL     1     114.357 108.273 147.186  0.00  0.00    +0.000 A 
ATOM     29  C   UNL     1     115.293 108.576 147.005  0.00  0.00    +0.000 A 
ATOM     30  C   UNL     1     114.064 107.359 146.907  0.00  0.00    +0.000 A 
ATOM     31  C   UNL     1     114.707 106.747 146.446  0.00  0.00    +0.000 A 
ATOM     32  C   UNL     1     115.936 107.964 146.544  0.00  0.00    +0.000 A 
ATOM     33  C   UNL     1     115.642 107.049 146.265  0.00  0.00    +0.000 A 
BRANCH  31  34
ATOM     34  O   UNL     1     114.414 105.833 146.166  0.00  0.00    +0.000 OA
ATOM     35  H   UNL     1     113.833 105.645 146.279  0.00  0.00    +0.000 HD
ENDBRANCH  31  34
BRANCH  32  36
ATOM     36  O   UNL     1     116.871 108.266 146.363  0.00  0.00    +0.000 OA
ATOM     37  H   UNL     1     117.112 108.738 146.685  0.00  0.00    +0.000 HD
ENDBRANCH  32  36
BRANCH  33  38
ATOM     38  O   UNL     1     116.285 106.437 145.804  0.00  0.00    +0.000 OA
ATOM     39  H   UNL     1     116.078 106.024 145.391  0.00  0.00    +0.000 HD
ENDBRANCH  33  38
ENDBRANCH  27  28
ENDBRANCH  25  27
ENDBRANCH   2  25
TORSDOF 11
ENDMDL
MODEL 9
REMARK VINA RESULT:      -8.4     32.961     35.029
REMARK  Name = 107905
REMARK  11 active torsions:
REMARK  status: ('A' for Active; 'I' for Inactive)
REMARK    1  A    between atoms: O_2  and  C_11
REMARK    2  A    between atoms: O_2  and  C_23
REMARK    3  A    between atoms: O_3  and  C_17
REMARK    4  A    between atoms: O_4  and  C_22
REMARK    5  A    between atoms: O_5  and  C_24
REMARK    6  A    between atoms: O_7  and  C_26
REMARK    7  A    between atoms: O_8  and  C_30
REMARK    8  A    between atoms: O_9  and  C_31
REMARK    9  A    between atoms: O_10  and  C_32
REMARK   10  A    between atoms: C_12  and  C_16
REMARK   11  A    between atoms: C_23  and  C_27
REMARK                            x       y       z     vdW  Elec       q    Type
REMARK                         _______ _______ _______ _____ _____    ______ ____
ROOT
ATOM      1  O   UNL     1     118.879 139.953 128.159  0.00  0.00    +0.000 OA
ATOM      2  C   UNL     1     119.840 138.516 128.264  0.00  0.00    +0.000 C 
ATOM      3  C   UNL     1     119.602 139.366 127.795  0.00  0.00    +0.000 C 
ATOM      4  C   UNL     1     119.356 138.253 129.099  0.00  0.00    +0.000 C 
ATOM      5  C   UNL     1     118.633 138.840 129.463  0.00  0.00    +0.000 A 
ATOM      6  C   UNL     1     118.394 139.690 128.994  0.00  0.00    +0.000 A 
ATOM      7  C   UNL     1     118.137 138.552 130.333  0.00  0.00    +0.000 A 
ATOM      8  C   UNL     1     117.643 140.311 129.361  0.00  0.00    +0.000 A 
ATOM      9  C   UNL     1     117.383 139.158 130.719  0.00  0.00    +0.000 A 
ATOM     10  C   UNL     1     117.134 140.044 130.230  0.00  0.00    +0.000 A 
ENDROOT
BRANCH   3  11
ATOM     11  C   UNL     1     120.086 139.629 126.960  0.00  0.00    +0.000 A 
ATOM     12  C   UNL     1     120.953 140.125 127.021  0.00  0.00    +0.000 A 
ATOM     13  C   UNL     1     119.704 139.397 126.066  0.00  0.00    +0.000 A 
ATOM     14  C   UNL     1     121.437 140.388 126.186  0.00  0.00    +0.000 A 
ATOM     15  C   UNL     1     120.188 139.661 125.232  0.00  0.00    +0.000 A 
ATOM     16  C   UNL     1     121.055 140.156 125.292  0.00  0.00    +0.000 A 
BRANCH  14  17
ATOM     17  O   UNL     1     122.304 140.883 126.246  0.00  0.00    +0.000 OA
ATOM     18  H   UNL     1     122.308 141.482 126.405  0.00  0.00    +0.000 HD
ENDBRANCH  14  17
BRANCH  16  19
ATOM     19  O   UNL     1     121.539 140.419 124.458  0.00  0.00    +0.000 OA
ATOM     20  H   UNL     1     122.117 140.218 124.358  0.00  0.00    +0.000 HD
ENDBRANCH  16  19
ENDBRANCH   3  11
BRANCH   7  21
ATOM     21  O   UNL     1     118.384 137.699 130.795  0.00  0.00    +0.000 OA
ATOM     22  H   UNL     1     118.843 137.695 131.212  0.00  0.00    +0.000 HD
ENDBRANCH   7  21
BRANCH  10  23
ATOM     23  O   UNL     1     116.412 140.632 130.592  0.00  0.00    +0.000 OA
ATOM     24  H   UNL     1     116.481 141.248 130.584  0.00  0.00    +0.000 HD
ENDBRANCH  10  23
BRANCH   2  25
ATOM     25  O   UNL     1     120.563 137.929 127.900  0.00  0.00    +0.000 OA
BRANCH  25  27
ATOM     26  O   UNL     1     119.584 136.513 128.083  0.00  0.00    +0.000 OA
ATOM     27  C   UNL     1     120.483 136.935 127.969  0.00  0.00    +0.000 C 
BRANCH  27  28
ATOM     28  C   UNL     1     121.302 136.363 127.925  0.00  0.00    +0.000 A 
ATOM     29  C   UNL     1     122.042 136.498 128.583  0.00  0.00    +0.000 A 
ATOM     30  C   UNL     1     121.380 135.656 127.222  0.00  0.00    +0.000 A 
ATOM     31  C   UNL     1     122.199 135.084 127.178  0.00  0.00    +0.000 A 
ATOM     32  C   UNL     1     122.861 135.926 128.539  0.00  0.00    +0.000 A 
ATOM     33  C   UNL     1     122.940 135.219 127.836  0.00  0.00    +0.000 A 
BRANCH  31  34
ATOM     34  O   UNL     1     122.278 134.377 126.475  0.00  0.00    +0.000 OA
ATOM     35  H   UNL     1     121.773 134.070 126.286  0.00  0.00    +0.000 HD
ENDBRANCH  31  34
BRANCH  32  36
ATOM     36  O   UNL     1     123.602 136.061 129.197  0.00  0.00    +0.000 OA
ATOM     37  H   UNL     1     123.658 135.680 129.684  0.00  0.00    +0.000 HD
ENDBRANCH  32  36
BRANCH  33  38
ATOM     38  O   UNL     1     123.759 134.647 127.792  0.00  0.00    +0.000 OA
ATOM     39  H   UNL     1     123.747 134.070 128.020  0.00  0.00    +0.000 HD
ENDBRANCH  33  38
ENDBRANCH  27  28
ENDBRANCH  25  27
ENDBRANCH   2  25
TORSDOF 11
ENDMDL
