MODEL 1
REMARK VINA RESULT:      -8.7      0.000      0.000
REMARK  Name = 65064
REMARK  12 active torsions:
REMARK  status: ('A' for Active; 'I' for Inactive)
REMARK    1  A    between atoms: O_2  and  C_12
REMARK    2  A    between atoms: O_2  and  C_24
REMARK    3  A    between atoms: O_3  and  C_18
REMARK    4  A    between atoms: O_4  and  C_23
REMARK    5  A    between atoms: O_5  and  C_25
REMARK    6  A    between atoms: O_6  and  C_26
REMARK    7  A    between atoms: O_8  and  C_27
REMARK    8  A    between atoms: O_9  and  C_31
REMARK    9  A    between atoms: O_10  and  C_32
REMARK   10  A    between atoms: O_11  and  C_33
REMARK   11  A    between atoms: C_13  and  C_16
REMARK   12  A    between atoms: C_24  and  C_28
REMARK                            x       y       z     vdW  Elec       q    Type
REMARK                         _______ _______ _______ _____ _____    ______ ____
ROOT
ATOM      1  O   UNL     1     118.879 139.841 128.306  0.00  0.00    +0.000 OA
ATOM      2  C   UNL     1     119.872 138.423 128.338  0.00  0.00    +0.000 C 
ATOM      3  C   UNL     1     119.594 139.275 127.896  0.00  0.00    +0.000 C 
ATOM      4  C   UNL     1     119.434 138.136 129.191  0.00  0.00    +0.000 C 
ATOM      5  C   UNL     1     118.719 138.702 129.601  0.00  0.00    +0.000 A 
ATOM      6  C   UNL     1     118.441 139.555 129.158  0.00  0.00    +0.000 A 
ATOM      7  C   UNL     1     118.273 138.391 130.489  0.00  0.00    +0.000 A 
ATOM      8  C   UNL     1     117.698 140.155 129.573  0.00  0.00    +0.000 A 
ATOM      9  C   UNL     1     117.527 138.975 130.922  0.00  0.00    +0.000 A 
ATOM     10  C   UNL     1     117.238 139.863 130.460  0.00  0.00    +0.000 A 
ENDROOT
BRANCH   3  11
ATOM     11  C   UNL     1     120.031 139.562 127.043  0.00  0.00    +0.000 A 
ATOM     12  C   UNL     1     120.922 140.017 127.066  0.00  0.00    +0.000 A 
ATOM     13  C   UNL     1     119.578 139.393 126.168  0.00  0.00    +0.000 A 
ATOM     14  C   UNL     1     120.016 139.680 125.315  0.00  0.00    +0.000 A 
ATOM     15  C   UNL     1     121.359 140.303 126.214  0.00  0.00    +0.000 A 
ATOM     16  C   UNL     1     120.906 140.135 125.339  0.00  0.00    +0.000 A 
BRANCH  14  17
ATOM     17  O   UNL     1     119.563 139.512 124.440  0.00  0.00    +0.000 OA
ATOM     18  H   UNL     1     119.625 139.918 123.976  0.00  0.00    +0.000 HD
ENDBRANCH  14  17
BRANCH  15  19
ATOM     19  O   UNL     1     122.249 140.758 126.237  0.00  0.00    +0.000 OA
ATOM     20  H   UNL     1     122.770 140.421 126.241  0.00  0.00    +0.000 HD
ENDBRANCH  15  19
BRANCH  16  21
ATOM     21  O   UNL     1     121.343 140.421 124.486  0.00  0.00    +0.000 OA
ATOM     22  H   UNL     1     121.641 140.005 124.136  0.00  0.00    +0.000 HD
ENDBRANCH  16  21
ENDBRANCH   3  11
BRANCH   7  23
ATOM     23  O   UNL     1     118.559 137.536 130.923  0.00  0.00    +0.000 OA
ATOM     24  H   UNL     1     118.603 137.502 131.540  0.00  0.00    +0.000 HD
ENDBRANCH   7  23
BRANCH  10  25
ATOM     25  O   UNL     1     116.523 140.432 130.867  0.00  0.00    +0.000 OA
ATOM     26  H   UNL     1     116.110 140.718 130.504  0.00  0.00    +0.000 HD
ENDBRANCH  10  25
BRANCH   2  27
ATOM     27  O   UNL     1     120.587 137.857 127.929  0.00  0.00    +0.000 OA
BRANCH  27  29
ATOM     28  O   UNL     1     119.677 136.397 128.135  0.00  0.00    +0.000 OA
ATOM     29  C   UNL     1     120.556 136.862 128.029  0.00  0.00    +0.000 C 
BRANCH  29  30
ATOM     30  C   UNL     1     121.405 136.333 128.022  0.00  0.00    +0.000 A 
ATOM     31  C   UNL     1     122.103 136.499 128.718  0.00  0.00    +0.000 A 
ATOM     32  C   UNL     1     121.554 135.636 127.320  0.00  0.00    +0.000 A 
ATOM     33  C   UNL     1     122.402 135.107 127.313  0.00  0.00    +0.000 A 
ATOM     34  C   UNL     1     122.952 135.969 128.711  0.00  0.00    +0.000 A 
ATOM     35  C   UNL     1     123.101 135.273 128.009  0.00  0.00    +0.000 A 
BRANCH  33  36
ATOM     36  O   UNL     1     122.551 134.411 126.611  0.00  0.00    +0.000 OA
ATOM     37  H   UNL     1     123.123 134.305 126.396  0.00  0.00    +0.000 HD
ENDBRANCH  33  36
BRANCH  34  38
ATOM     38  O   UNL     1     123.650 136.136 129.407  0.00  0.00    +0.000 OA
ATOM     39  H   UNL     1     124.154 135.776 129.432  0.00  0.00    +0.000 HD
ENDBRANCH  34  38
BRANCH  35  40
ATOM     40  O   UNL     1     123.949 134.744 128.002  0.00  0.00    +0.000 OA
ATOM     41  H   UNL     1     124.143 134.462 128.520  0.00  0.00    +0.000 HD
ENDBRANCH  35  40
ENDBRANCH  29  30
ENDBRANCH  27  29
ENDBRANCH   2  27
TORSDOF 12
ENDMDL
MODEL 2
REMARK VINA RESULT:      -8.5     32.720     34.670
REMARK  Name = 65064
REMARK  12 active torsions:
REMARK  status: ('A' for Active; 'I' for Inactive)
REMARK    1  A    between atoms: O_2  and  C_12
REMARK    2  A    between atoms: O_2  and  C_24
REMARK    3  A    between atoms: O_3  and  C_18
REMARK    4  A    between atoms: O_4  and  C_23
REMARK    5  A    between atoms: O_5  and  C_25
REMARK    6  A    between atoms: O_6  and  C_26
REMARK    7  A    between atoms: O_8  and  C_27
REMARK    8  A    between atoms: O_9  and  C_31
REMARK    9  A    between atoms: O_10  and  C_32
REMARK   10  A    between atoms: O_11  and  C_33
REMARK   11  A    between atoms: C_13  and  C_16
REMARK   12  A    between atoms: C_24  and  C_28
REMARK                            x       y       z     vdW  Elec       q    Type
REMARK                         _______ _______ _______ _____ _____    ______ ____
ROOT
ATOM      1  O   UNL     1     112.634 112.189 147.147  0.00  0.00    +0.000 OA
ATOM      2  C   UNL     1     113.246 110.572 147.254  0.00  0.00    +0.000 C 
ATOM      3  C   UNL     1     113.273 111.529 147.542  0.00  0.00    +0.000 C 
ATOM      4  C   UNL     1     112.579 110.274 146.571  0.00  0.00    +0.000 C 
ATOM      5  C   UNL     1     111.939 110.934 146.176  0.00  0.00    +0.000 A 
ATOM      6  C   UNL     1     111.966 111.891 146.464  0.00  0.00    +0.000 A 
ATOM      7  C   UNL     1     111.250 110.608 145.466  0.00  0.00    +0.000 A 
ATOM      8  C   UNL     1     111.306 112.590 146.063  0.00  0.00    +0.000 A 
ATOM      9  C   UNL     1     110.580 111.289 145.051  0.00  0.00    +0.000 A 
ATOM     10  C   UNL     1     110.608 112.287 145.351  0.00  0.00    +0.000 A 
ENDROOT
BRANCH   3  11
ATOM     11  C   UNL     1     113.941 111.827 148.224  0.00  0.00    +0.000 A 
ATOM     12  C   UNL     1     113.720 111.769 149.198  0.00  0.00    +0.000 A 
ATOM     13  C   UNL     1     114.829 112.182 147.934  0.00  0.00    +0.000 A 
ATOM     14  C   UNL     1     115.496 112.480 148.616  0.00  0.00    +0.000 A 
ATOM     15  C   UNL     1     114.387 112.067 149.881  0.00  0.00    +0.000 A 
ATOM     16  C   UNL     1     115.275 112.423 149.590  0.00  0.00    +0.000 A 
BRANCH  14  17
ATOM     17  O   UNL     1     116.384 112.836 148.325  0.00  0.00    +0.000 OA
ATOM     18  H   UNL     1     116.824 112.446 148.126  0.00  0.00    +0.000 HD
ENDBRANCH  14  17
BRANCH  15  19
ATOM     19  O   UNL     1     114.166 112.009 150.854  0.00  0.00    +0.000 OA
ATOM     20  H   UNL     1     114.604 112.122 151.279  0.00  0.00    +0.000 HD
ENDBRANCH  15  19
BRANCH  16  21
ATOM     21  O   UNL     1     115.942 112.720 150.273  0.00  0.00    +0.000 OA
ATOM     22  H   UNL     1     116.036 112.381 150.783  0.00  0.00    +0.000 HD
ENDBRANCH  16  21
ENDBRANCH   3  11
BRANCH   7  23
ATOM     23  O   UNL     1     111.231 109.649 145.185  0.00  0.00    +0.000 OA
ATOM     24  H   UNL     1     111.628 109.444 144.756  0.00  0.00    +0.000 HD
ENDBRANCH   7  23
BRANCH  10  25
ATOM     25  O   UNL     1     109.970 112.949 144.958  0.00  0.00    +0.000 OA
ATOM     26  H   UNL     1     109.368 112.921 145.101  0.00  0.00    +0.000 HD
ENDBRANCH  10  25
BRANCH   2  27
ATOM     27  O   UNL     1     113.886 109.913 147.648  0.00  0.00    +0.000 OA
BRANCH  27  29
ATOM     28  O   UNL     1     112.844 108.625 148.155  0.00  0.00    +0.000 OA
ATOM     29  C   UNL     1     113.656 108.940 147.663  0.00  0.00    +0.000 C 
BRANCH  29  30
ATOM     30  C   UNL     1     114.237 108.281 147.185  0.00  0.00    +0.000 A 
ATOM     31  C   UNL     1     113.865 107.395 146.907  0.00  0.00    +0.000 A 
ATOM     32  C   UNL     1     115.190 108.508 146.985  0.00  0.00    +0.000 A 
ATOM     33  C   UNL     1     115.771 107.849 146.507  0.00  0.00    +0.000 A 
ATOM     34  C   UNL     1     114.446 106.737 146.429  0.00  0.00    +0.000 A 
ATOM     35  C   UNL     1     115.399 106.964 146.229  0.00  0.00    +0.000 A 
BRANCH  33  36
ATOM     36  O   UNL     1     116.724 108.076 146.307  0.00  0.00    +0.000 OA
ATOM     37  H   UNL     1     117.179 107.703 146.503  0.00  0.00    +0.000 HD
ENDBRANCH  33  36
BRANCH  34  38
ATOM     38  O   UNL     1     114.074 105.851 146.151  0.00  0.00    +0.000 OA
ATOM     39  H   UNL     1     113.586 105.612 146.450  0.00  0.00    +0.000 HD
ENDBRANCH  34  38
BRANCH  35  40
ATOM     40  O   UNL     1     115.980 106.305 145.751  0.00  0.00    +0.000 OA
ATOM     41  H   UNL     1     115.733 105.920 145.333  0.00  0.00    +0.000 HD
ENDBRANCH  35  40
ENDBRANCH  29  30
ENDBRANCH  27  29
ENDBRANCH   2  27
TORSDOF 12
ENDMDL
MODEL 3
REMARK VINA RESULT:      -8.5      1.825      2.178
REMARK  Name = 65064
REMARK  12 active torsions:
REMARK  status: ('A' for Active; 'I' for Inactive)
REMARK    1  A    between atoms: O_2  and  C_12
REMARK    2  A    between atoms: O_2  and  C_24
REMARK    3  A    between atoms: O_3  and  C_18
REMARK    4  A    between atoms: O_4  and  C_23
REMARK    5  A    between atoms: O_5  and  C_25
REMARK    6  A    between atoms: O_6  and  C_26
REMARK    7  A    between atoms: O_8  and  C_27
REMARK    8  A    between atoms: O_9  and  C_31
REMARK    9  A    between atoms: O_10  and  C_32
REMARK   10  A    between atoms: O_11  and  C_33
REMARK   11  A    between atoms: C_13  and  C_16
REMARK   12  A    between atoms: C_24  and  C_28
REMARK                            x       y       z     vdW  Elec       q    Type
REMARK                         _______ _______ _______ _____ _____    ______ ____
ROOT
ATOM      1  O   UNL     1     118.533 139.551 126.690  0.00  0.00    +0.000 OA
ATOM      2  C   UNL     1     119.376 138.059 126.942  0.00  0.00    +0.000 C 
ATOM      3  C   UNL     1     119.388 139.033 126.717  0.00  0.00    +0.000 C 
ATOM      4  C   UNL     1     118.509 137.603 127.141  0.00  0.00    +0.000 C 
ATOM      5  C   UNL     1     117.654 138.121 127.114  0.00  0.00    +0.000 A 
ATOM      6  C   UNL     1     117.666 139.095 126.889  0.00  0.00    +0.000 A 
ATOM      7  C   UNL     1     116.758 137.631 127.324  0.00  0.00    +0.000 A 
ATOM      8  C   UNL     1     116.783 139.648 126.857  0.00  0.00    +0.000 A 
ATOM      9  C   UNL     1     115.863 138.164 127.297  0.00  0.00    +0.000 A 
ATOM     10  C   UNL     1     115.876 139.179 127.062  0.00  0.00    +0.000 A 
ENDROOT
BRANCH   3  11
ATOM     11  C   UNL     1     120.256 139.490 126.518  0.00  0.00    +0.000 A 
ATOM     12  C   UNL     1     120.503 139.704 125.573  0.00  0.00    +0.000 A 
ATOM     13  C   UNL     1     120.875 139.732 127.264  0.00  0.00    +0.000 A 
ATOM     14  C   UNL     1     121.743 140.188 127.066  0.00  0.00    +0.000 A 
ATOM     15  C   UNL     1     121.370 140.160 125.374  0.00  0.00    +0.000 A 
ATOM     16  C   UNL     1     121.990 140.402 126.121  0.00  0.00    +0.000 A 
BRANCH  14  17
ATOM     17  O   UNL     1     122.363 140.431 127.812  0.00  0.00    +0.000 OA
ATOM     18  H   UNL     1     122.141 140.510 128.386  0.00  0.00    +0.000 HD
ENDBRANCH  14  17
BRANCH  15  19
ATOM     19  O   UNL     1     121.618 140.374 124.429  0.00  0.00    +0.000 OA
ATOM     20  H   UNL     1     121.178 140.404 123.993  0.00  0.00    +0.000 HD
ENDBRANCH  15  19
BRANCH  16  21
ATOM     21  O   UNL     1     122.857 140.859 125.922  0.00  0.00    +0.000 OA
ATOM     22  H   UNL     1     122.882 141.305 125.492  0.00  0.00    +0.000 HD
ENDBRANCH  16  21
ENDBRANCH   3  11
BRANCH   7  23
ATOM     23  O   UNL     1     116.758 136.656 127.548  0.00  0.00    +0.000 OA
ATOM     24  H   UNL     1     116.444 136.257 127.193  0.00  0.00    +0.000 HD
ENDBRANCH   7  23
BRANCH  10  25
ATOM     25  O   UNL     1     115.023 139.700 127.035  0.00  0.00    +0.000 OA
ATOM     26  H   UNL     1     114.485 139.408 126.937  0.00  0.00    +0.000 HD
ENDBRANCH  10  25
BRANCH   2  27
ATOM     27  O   UNL     1     120.231 137.541 126.969  0.00  0.00    +0.000 OA
BRANCH  27  29
ATOM     28  O   UNL     1     119.666 136.678 128.361  0.00  0.00    +0.000 OA
ATOM     29  C   UNL     1     120.367 136.836 127.665  0.00  0.00    +0.000 C 
BRANCH  29  30
ATOM     30  C   UNL     1     121.203 136.287 127.664  0.00  0.00    +0.000 A 
ATOM     31  C   UNL     1     121.933 136.488 128.316  0.00  0.00    +0.000 A 
ATOM     32  C   UNL     1     121.308 135.537 127.011  0.00  0.00    +0.000 A 
ATOM     33  C   UNL     1     122.144 134.989 127.010  0.00  0.00    +0.000 A 
ATOM     34  C   UNL     1     122.769 135.940 128.316  0.00  0.00    +0.000 A 
ATOM     35  C   UNL     1     122.875 135.190 127.663  0.00  0.00    +0.000 A 
BRANCH  33  36
ATOM     36  O   UNL     1     122.250 134.239 126.357  0.00  0.00    +0.000 OA
ATOM     37  H   UNL     1     122.336 133.660 126.561  0.00  0.00    +0.000 HD
ENDBRANCH  33  36
BRANCH  34  38
ATOM     38  O   UNL     1     123.500 136.141 128.968  0.00  0.00    +0.000 OA
ATOM     39  H   UNL     1     123.713 136.720 129.026  0.00  0.00    +0.000 HD
ENDBRANCH  34  38
BRANCH  35  40
ATOM     40  O   UNL     1     123.711 134.641 127.662  0.00  0.00    +0.000 OA
ATOM     41  H   UNL     1     123.887 134.346 127.146  0.00  0.00    +0.000 HD
ENDBRANCH  35  40
ENDBRANCH  29  30
ENDBRANCH  27  29
ENDBRANCH   2  27
TORSDOF 12
ENDMDL
MODEL 4
REMARK VINA RESULT:      -8.5      1.407      2.102
REMARK  Name = 65064
REMARK  12 active torsions:
REMARK  status: ('A' for Active; 'I' for Inactive)
REMARK    1  A    between atoms: O_2  and  C_12
REMARK    2  A    between atoms: O_2  and  C_24
REMARK    3  A    between atoms: O_3  and  C_18
REMARK    4  A    between atoms: O_4  and  C_23
REMARK    5  A    between atoms: O_5  and  C_25
REMARK    6  A    between atoms: O_6  and  C_26
REMARK    7  A    between atoms: O_8  and  C_27
REMARK    8  A    between atoms: O_9  and  C_31
REMARK    9  A    between atoms: O_10  and  C_32
REMARK   10  A    between atoms: O_11  and  C_33
REMARK   11  A    between atoms: C_13  and  C_16
REMARK   12  A    between atoms: C_24  and  C_28
REMARK                            x       y       z     vdW  Elec       q    Type
REMARK                         _______ _______ _______ _____ _____    ______ ____
ROOT
ATOM      1  O   UNL     1     118.289 141.030 127.838  0.00  0.00    +0.000 OA
ATOM      2  C   UNL     1     118.804 139.451 128.331  0.00  0.00    +0.000 C 
ATOM      3  C   UNL     1     118.868 140.226 127.702  0.00  0.00    +0.000 C 
ATOM      4  C   UNL     1     118.162 139.481 129.097  0.00  0.00    +0.000 C 
ATOM      5  C   UNL     1     117.583 140.285 129.233  0.00  0.00    +0.000 A 
ATOM      6  C   UNL     1     117.647 141.060 128.604  0.00  0.00    +0.000 A 
ATOM      7  C   UNL     1     116.919 140.302 130.036  0.00  0.00    +0.000 A 
ATOM      8  C   UNL     1     117.051 141.904 128.733  0.00  0.00    +0.000 A 
ATOM      9  C   UNL     1     116.313 141.136 130.184  0.00  0.00    +0.000 A 
ATOM     10  C   UNL     1     116.380 141.943 129.528  0.00  0.00    +0.000 A 
ENDROOT
BRANCH   3  11
ATOM     11  C   UNL     1     119.510 140.196 126.936  0.00  0.00    +0.000 A 
ATOM     12  C   UNL     1     120.447 140.525 127.055  0.00  0.00    +0.000 A 
ATOM     13  C   UNL     1     119.216 139.836 126.050  0.00  0.00    +0.000 A 
ATOM     14  C   UNL     1     119.858 139.806 125.284  0.00  0.00    +0.000 A 
ATOM     15  C   UNL     1     121.089 140.495 126.290  0.00  0.00    +0.000 A 
ATOM     16  C   UNL     1     120.795 140.136 125.404  0.00  0.00    +0.000 A 
BRANCH  14  17
ATOM     17  O   UNL     1     119.564 139.447 124.399  0.00  0.00    +0.000 OA
ATOM     18  H   UNL     1     119.740 139.730 123.876  0.00  0.00    +0.000 HD
ENDBRANCH  14  17
BRANCH  15  19
ATOM     19  O   UNL     1     122.025 140.825 126.409  0.00  0.00    +0.000 OA
ATOM     20  H   UNL     1     122.365 140.627 126.889  0.00  0.00    +0.000 HD
ENDBRANCH  15  19
BRANCH  16  21
ATOM     21  O   UNL     1     121.437 140.106 124.638  0.00  0.00    +0.000 OA
ATOM     22  H   UNL     1     121.578 140.626 124.331  0.00  0.00    +0.000 HD
ENDBRANCH  16  21
ENDBRANCH   3  11
BRANCH   7  23
ATOM     23  O   UNL     1     116.864 139.521 130.659  0.00  0.00    +0.000 OA
ATOM     24  H   UNL     1     116.386 139.471 131.051  0.00  0.00    +0.000 HD
ENDBRANCH   7  23
BRANCH  10  25
ATOM     25  O   UNL     1     115.803 142.748 129.661  0.00  0.00    +0.000 OA
ATOM     26  H   UNL     1     115.787 143.193 129.230  0.00  0.00    +0.000 HD
ENDBRANCH  10  25
BRANCH   2  27
ATOM     27  O   UNL     1     119.383 138.647 128.195  0.00  0.00    +0.000 OA
BRANCH  27  29
ATOM     28  O   UNL     1     118.743 137.489 129.313  0.00  0.00    +0.000 OA
ATOM     29  C   UNL     1     119.520 137.998 128.943  0.00  0.00    +0.000 C 
BRANCH  29  30
ATOM     30  C   UNL     1     120.435 137.857 129.321  0.00  0.00    +0.000 A 
ATOM     31  C   UNL     1     120.662 138.211 130.228  0.00  0.00    +0.000 A 
ATOM     32  C   UNL     1     121.124 137.362 128.791  0.00  0.00    +0.000 A 
ATOM     33  C   UNL     1     122.039 137.221 129.169  0.00  0.00    +0.000 A 
ATOM     34  C   UNL     1     121.577 138.070 130.606  0.00  0.00    +0.000 A 
ATOM     35  C   UNL     1     122.266 137.575 130.077  0.00  0.00    +0.000 A 
BRANCH  33  36
ATOM     36  O   UNL     1     122.728 136.726 128.639  0.00  0.00    +0.000 OA
ATOM     37  H   UNL     1     123.241 137.018 128.448  0.00  0.00    +0.000 HD
ENDBRANCH  33  36
BRANCH  34  38
ATOM     38  O   UNL     1     121.803 138.424 131.514  0.00  0.00    +0.000 OA
ATOM     39  H   UNL     1     121.686 138.082 132.018  0.00  0.00    +0.000 HD
ENDBRANCH  34  38
BRANCH  35  40
ATOM     40  O   UNL     1     123.181 137.434 130.454  0.00  0.00    +0.000 OA
ATOM     41  H   UNL     1     123.658 137.317 130.076  0.00  0.00    +0.000 HD
ENDBRANCH  35  40
ENDBRANCH  29  30
ENDBRANCH  27  29
ENDBRANCH   2  27
TORSDOF 12
ENDMDL
MODEL 5
REMARK VINA RESULT:      -8.5     33.455     35.537
REMARK  Name = 65064
REMARK  12 active torsions:
REMARK  status: ('A' for Active; 'I' for Inactive)
REMARK    1  A    between atoms: O_2  and  C_12
REMARK    2  A    between atoms: O_2  and  C_24
REMARK    3  A    between atoms: O_3  and  C_18
REMARK    4  A    between atoms: O_4  and  C_23
REMARK    5  A    between atoms: O_5  and  C_25
REMARK    6  A    between atoms: O_6  and  C_26
REMARK    7  A    between atoms: O_8  and  C_27
REMARK    8  A    between atoms: O_9  and  C_31
REMARK    9  A    between atoms: O_10  and  C_32
REMARK   10  A    between atoms: O_11  and  C_33
REMARK   11  A    between atoms: C_13  and  C_16
REMARK   12  A    between atoms: C_24  and  C_28
REMARK                            x       y       z     vdW  Elec       q    Type
REMARK                         _______ _______ _______ _____ _____    ______ ____
ROOT
ATOM      1  O   UNL     1     112.334 109.739 146.039  0.00  0.00    +0.000 OA
ATOM      2  C   UNL     1     113.003 110.296 147.536  0.00  0.00    +0.000 C 
ATOM      3  C   UNL     1     112.923 109.589 146.834  0.00  0.00    +0.000 C 
ATOM      4  C   UNL     1     112.496 111.153 147.445  0.00  0.00    +0.000 C 
ATOM      5  C   UNL     1     111.907 111.302 146.650  0.00  0.00    +0.000 A 
ATOM      6  C   UNL     1     111.826 110.595 145.948  0.00  0.00    +0.000 A 
ATOM      7  C   UNL     1     111.384 112.200 146.569  0.00  0.00    +0.000 A 
ATOM      8  C   UNL     1     111.217 110.736 145.114  0.00  0.00    +0.000 A 
ATOM      9  C   UNL     1     110.769 112.363 145.744  0.00  0.00    +0.000 A 
ATOM     10  C   UNL     1     110.685 111.626 145.012  0.00  0.00    +0.000 A 
ENDROOT
BRANCH   3  11
ATOM     11  C   UNL     1     113.431 108.733 146.925  0.00  0.00    +0.000 A 
ATOM     12  C   UNL     1     113.029 107.965 147.424  0.00  0.00    +0.000 A 
ATOM     13  C   UNL     1     114.340 108.644 146.518  0.00  0.00    +0.000 A 
ATOM     14  C   UNL     1     114.847 107.788 146.610  0.00  0.00    +0.000 A 
ATOM     15  C   UNL     1     113.537 107.108 147.516  0.00  0.00    +0.000 A 
ATOM     16  C   UNL     1     114.446 107.020 147.109  0.00  0.00    +0.000 A 
BRANCH  14  17
ATOM     17  O   UNL     1     115.756 107.700 146.203  0.00  0.00    +0.000 OA
ATOM     18  H   UNL     1     115.958 107.145 146.011  0.00  0.00    +0.000 HD
ENDBRANCH  14  17
BRANCH  15  19
ATOM     19  O   UNL     1     113.136 106.340 148.015  0.00  0.00    +0.000 OA
ATOM     20  H   UNL     1     112.548 106.370 148.209  0.00  0.00    +0.000 HD
ENDBRANCH  15  19
BRANCH  16  21
ATOM     21  O   UNL     1     114.954 106.163 147.201  0.00  0.00    +0.000 OA
ATOM     22  H   UNL     1     115.455 106.138 147.565  0.00  0.00    +0.000 HD
ENDBRANCH  16  21
ENDBRANCH   3  11
BRANCH   7  23
ATOM     23  O   UNL     1     111.472 112.900 147.277  0.00  0.00    +0.000 OA
ATOM     24  H   UNL     1     111.055 112.932 147.734  0.00  0.00    +0.000 HD
ENDBRANCH   7  23
BRANCH  10  25
ATOM     25  O   UNL     1     110.097 111.772 144.216  0.00  0.00    +0.000 OA
ATOM     26  H   UNL     1     110.267 112.173 143.775  0.00  0.00    +0.000 HD
ENDBRANCH  10  25
BRANCH   2  27
ATOM     27  O   UNL     1     113.592 110.147 148.331  0.00  0.00    +0.000 OA
BRANCH  27  29
ATOM     28  O   UNL     1     114.284 111.734 148.300  0.00  0.00    +0.000 OA
ATOM     29  C   UNL     1     113.990 110.928 148.812  0.00  0.00    +0.000 C 
BRANCH  29  30
ATOM     30  C   UNL     1     114.094 110.902 149.807  0.00  0.00    +0.000 A 
ATOM     31  C   UNL     1     113.821 110.086 150.317  0.00  0.00    +0.000 A 
ATOM     32  C   UNL     1     114.471 111.691 150.291  0.00  0.00    +0.000 A 
ATOM     33  C   UNL     1     114.575 111.665 151.285  0.00  0.00    +0.000 A 
ATOM     34  C   UNL     1     113.925 110.060 151.311  0.00  0.00    +0.000 A 
ATOM     35  C   UNL     1     114.302 110.850 151.795  0.00  0.00    +0.000 A 
BRANCH  33  36
ATOM     36  O   UNL     1     114.952 112.455 151.769  0.00  0.00    +0.000 OA
ATOM     37  H   UNL     1     115.562 112.494 151.871  0.00  0.00    +0.000 HD
ENDBRANCH  33  36
BRANCH  34  38
ATOM     38  O   UNL     1     113.652 109.245 151.821  0.00  0.00    +0.000 OA
ATOM     39  H   UNL     1     113.550 108.711 151.522  0.00  0.00    +0.000 HD
ENDBRANCH  34  38
BRANCH  35  40
ATOM     40  O   UNL     1     114.405 110.824 152.789  0.00  0.00    +0.000 OA
ATOM     41  H   UNL     1     114.801 110.424 153.049  0.00  0.00    +0.000 HD
ENDBRANCH  35  40
ENDBRANCH  29  30
ENDBRANCH  27  29
ENDBRANCH   2  27
TORSDOF 12
ENDMDL
MODEL 6
REMARK VINA RESULT:      -8.4     33.153     35.091
REMARK  Name = 65064
REMARK  12 active torsions:
REMARK  status: ('A' for Active; 'I' for Inactive)
REMARK    1  A    between atoms: O_2  and  C_12
REMARK    2  A    between atoms: O_2  and  C_24
REMARK    3  A    between atoms: O_3  and  C_18
REMARK    4  A    between atoms: O_4  and  C_23
REMARK    5  A    between atoms: O_5  and  C_25
REMARK    6  A    between atoms: O_6  and  C_26
REMARK    7  A    between atoms: O_8  and  C_27
REMARK    8  A    between atoms: O_9  and  C_31
REMARK    9  A    between atoms: O_10  and  C_32
REMARK   10  A    between atoms: O_11  and  C_33
REMARK   11  A    between atoms: C_13  and  C_16
REMARK   12  A    between atoms: C_24  and  C_28
REMARK                            x       y       z     vdW  Elec       q    Type
REMARK                         _______ _______ _______ _____ _____    ______ ____
ROOT
ATOM      1  O   UNL     1     112.716 112.173 147.226  0.00  0.00    +0.000 OA
ATOM      2  C   UNL     1     113.397 110.596 147.447  0.00  0.00    +0.000 C 
ATOM      3  C   UNL     1     113.376 111.569 147.673  0.00  0.00    +0.000 C 
ATOM      4  C   UNL     1     112.757 110.225 146.774  0.00  0.00    +0.000 C 
ATOM      5  C   UNL     1     112.097 110.828 146.327  0.00  0.00    +0.000 A 
ATOM      6  C   UNL     1     112.076 111.802 146.553  0.00  0.00    +0.000 A 
ATOM      7  C   UNL     1     111.437 110.427 145.627  0.00  0.00    +0.000 A 
ATOM      8  C   UNL     1     111.394 112.443 146.095  0.00  0.00    +0.000 A 
ATOM      9  C   UNL     1     110.746 111.049 145.157  0.00  0.00    +0.000 A 
ATOM     10  C   UNL     1     110.724 112.064 145.393  0.00  0.00    +0.000 A 
ENDROOT
BRANCH   3  11
ATOM     11  C   UNL     1     114.016 111.940 148.347  0.00  0.00    +0.000 A 
ATOM     12  C   UNL     1     114.807 112.472 148.045  0.00  0.00    +0.000 A 
ATOM     13  C   UNL     1     113.864 111.779 149.322  0.00  0.00    +0.000 A 
ATOM     14  C   UNL     1     114.503 112.150 149.995  0.00  0.00    +0.000 A 
ATOM     15  C   UNL     1     115.447 112.842 148.718  0.00  0.00    +0.000 A 
ATOM     16  C   UNL     1     115.295 112.682 149.693  0.00  0.00    +0.000 A 
BRANCH  14  17
ATOM     17  O   UNL     1     114.352 111.989 150.970  0.00  0.00    +0.000 OA
ATOM     18  H   UNL     1     114.804 111.748 151.319  0.00  0.00    +0.000 HD
ENDBRANCH  14  17
BRANCH  15  19
ATOM     19  O   UNL     1     116.238 113.374 148.416  0.00  0.00    +0.000 OA
ATOM     20  H   UNL     1     116.186 113.985 148.328  0.00  0.00    +0.000 HD
ENDBRANCH  15  19
BRANCH  16  21
ATOM     21  O   UNL     1     115.935 113.052 150.367  0.00  0.00    +0.000 OA
ATOM     22  H   UNL     1     115.814 113.594 150.644  0.00  0.00    +0.000 HD
ENDBRANCH  16  21
ENDBRANCH   3  11
BRANCH   7  23
ATOM     23  O   UNL     1     111.467 109.451 145.409  0.00  0.00    +0.000 OA
ATOM     24  H   UNL     1     111.948 109.108 145.593  0.00  0.00    +0.000 HD
ENDBRANCH   7  23
BRANCH  10  25
ATOM     25  O   UNL     1     110.066 112.670 144.948  0.00  0.00    +0.000 OA
ATOM     26  H   UNL     1     109.464 112.634 145.093  0.00  0.00    +0.000 HD
ENDBRANCH  10  25
BRANCH   2  27
ATOM     27  O   UNL     1     114.057 109.992 147.894  0.00  0.00    +0.000 OA
BRANCH  27  29
ATOM     28  O   UNL     1     114.642 109.092 146.535  0.00  0.00    +0.000 OA
ATOM     29  C   UNL     1     114.300 109.118 147.475  0.00  0.00    +0.000 C 
BRANCH  29  30
ATOM     30  C   UNL     1     114.200 108.269 147.994  0.00  0.00    +0.000 A 
ATOM     31  C   UNL     1     114.631 108.180 148.893  0.00  0.00    +0.000 A 
ATOM     32  C   UNL     1     113.671 107.510 147.616  0.00  0.00    +0.000 A 
ATOM     33  C   UNL     1     113.571 106.662 148.136  0.00  0.00    +0.000 A 
ATOM     34  C   UNL     1     114.532 107.331 149.412  0.00  0.00    +0.000 A 
ATOM     35  C   UNL     1     114.002 106.572 149.034  0.00  0.00    +0.000 A 
BRANCH  33  36
ATOM     36  O   UNL     1     113.041 105.903 147.757  0.00  0.00    +0.000 OA
ATOM     37  H   UNL     1     112.942 105.394 148.097  0.00  0.00    +0.000 HD
ENDBRANCH  33  36
BRANCH  34  38
ATOM     38  O   UNL     1     114.962 107.241 150.310  0.00  0.00    +0.000 OA
ATOM     39  H   UNL     1     114.638 107.015 150.788  0.00  0.00    +0.000 HD
ENDBRANCH  34  38
BRANCH  35  40
ATOM     40  O   UNL     1     113.902 105.724 149.553  0.00  0.00    +0.000 OA
ATOM     41  H   UNL     1     113.447 105.667 149.971  0.00  0.00    +0.000 HD
ENDBRANCH  35  40
ENDBRANCH  29  30
ENDBRANCH  27  29
ENDBRANCH   2  27
TORSDOF 12
ENDMDL
MODEL 7
REMARK VINA RESULT:      -8.4     12.945     15.639
REMARK  Name = 65064
REMARK  12 active torsions:
REMARK  status: ('A' for Active; 'I' for Inactive)
REMARK    1  A    between atoms: O_2  and  C_12
REMARK    2  A    between atoms: O_2  and  C_24
REMARK    3  A    between atoms: O_3  and  C_18
REMARK    4  A    between atoms: O_4  and  C_23
REMARK    5  A    between atoms: O_5  and  C_25
REMARK    6  A    between atoms: O_6  and  C_26
REMARK    7  A    between atoms: O_8  and  C_27
REMARK    8  A    between atoms: O_9  and  C_31
REMARK    9  A    between atoms: O_10  and  C_32
REMARK   10  A    between atoms: O_11  and  C_33
REMARK   11  A    between atoms: C_13  and  C_16
REMARK   12  A    between atoms: C_24  and  C_28
REMARK                            x       y       z     vdW  Elec       q    Type
REMARK                         _______ _______ _______ _____ _____    ______ ____
ROOT
ATOM      1  O   UNL     1     117.779 151.797 128.002  0.00  0.00    +0.000 OA
ATOM      2  C   UNL     1     117.942 152.784 129.416  0.00  0.00    +0.000 C 
ATOM      3  C   UNL     1     118.215 151.983 128.883  0.00  0.00    +0.000 C 
ATOM      4  C   UNL     1     117.235 153.399 129.069  0.00  0.00    +0.000 C 
ATOM      5  C   UNL     1     116.800 153.213 128.188  0.00  0.00    +0.000 A 
ATOM      6  C   UNL     1     117.072 152.413 127.654  0.00  0.00    +0.000 A 
ATOM      7  C   UNL     1     116.064 153.864 127.839  0.00  0.00    +0.000 A 
ATOM      8  C   UNL     1     116.628 152.206 126.735  0.00  0.00    +0.000 A 
ATOM      9  C   UNL     1     115.606 153.677 126.922  0.00  0.00    +0.000 A 
ATOM     10  C   UNL     1     115.890 152.842 126.366  0.00  0.00    +0.000 A 
ENDROOT
BRANCH   3  11
ATOM     11  C   UNL     1     118.922 151.368 129.230  0.00  0.00    +0.000 A 
ATOM     12  C   UNL     1     119.884 151.541 129.018  0.00  0.00    +0.000 A 
ATOM     13  C   UNL     1     118.668 150.579 129.790  0.00  0.00    +0.000 A 
ATOM     14  C   UNL     1     119.375 149.963 130.138  0.00  0.00    +0.000 A 
ATOM     15  C   UNL     1     120.591 150.926 129.366  0.00  0.00    +0.000 A 
ATOM     16  C   UNL     1     120.337 150.137 129.926  0.00  0.00    +0.000 A 
BRANCH  14  17
ATOM     17  O   UNL     1     119.121 149.175 130.697  0.00  0.00    +0.000 OA
ATOM     18  H   UNL     1     119.128 148.605 130.452  0.00  0.00    +0.000 HD
ENDBRANCH  14  17
BRANCH  15  19
ATOM     19  O   UNL     1     121.553 151.099 129.154  0.00  0.00    +0.000 OA
ATOM     20  H   UNL     1     121.973 150.649 129.228  0.00  0.00    +0.000 HD
ENDBRANCH  15  19
BRANCH  16  21
ATOM     21  O   UNL     1     121.045 149.522 130.273  0.00  0.00    +0.000 OA
ATOM     22  H   UNL     1     121.591 149.481 129.982  0.00  0.00    +0.000 HD
ENDBRANCH  16  21
ENDBRANCH   3  11
BRANCH   7  23
ATOM     23  O   UNL     1     115.800 154.662 128.381  0.00  0.00    +0.000 OA
ATOM     24  H   UNL     1     116.231 155.066 128.567  0.00  0.00    +0.000 HD
ENDBRANCH   7  23
BRANCH  10  25
ATOM     25  O   UNL     1     115.457 152.654 125.485  0.00  0.00    +0.000 OA
ATOM     26  H   UNL     1     114.884 152.862 125.371  0.00  0.00    +0.000 HD
ENDBRANCH  10  25
BRANCH   2  27
ATOM     27  O   UNL     1     118.378 152.969 130.297  0.00  0.00    +0.000 OA
BRANCH  27  29
ATOM     28  O   UNL     1     118.547 154.647 129.901  0.00  0.00    +0.000 OA
ATOM     29  C   UNL     1     118.553 153.912 130.579  0.00  0.00    +0.000 C 
BRANCH  29  30
ATOM     30  C   UNL     1     118.735 154.121 131.540  0.00  0.00    +0.000 A 
ATOM     31  C   UNL     1     118.131 153.764 132.253  0.00  0.00    +0.000 A 
ATOM     32  C   UNL     1     119.521 154.688 131.789  0.00  0.00    +0.000 A 
ATOM     33  C   UNL     1     119.702 154.896 132.750  0.00  0.00    +0.000 A 
ATOM     34  C   UNL     1     118.312 153.973 133.213  0.00  0.00    +0.000 A 
ATOM     35  C   UNL     1     119.098 154.539 133.462  0.00  0.00    +0.000 A 
BRANCH  33  36
ATOM     36  O   UNL     1     120.488 155.463 132.998  0.00  0.00    +0.000 OA
ATOM     37  H   UNL     1     120.400 156.022 133.251  0.00  0.00    +0.000 HD
ENDBRANCH  33  36
BRANCH  34  38
ATOM     38  O   UNL     1     117.708 153.615 133.926  0.00  0.00    +0.000 OA
ATOM     39  H   UNL     1     117.934 153.238 134.363  0.00  0.00    +0.000 HD
ENDBRANCH  34  38
BRANCH  35  40
ATOM     40  O   UNL     1     119.280 154.748 134.423  0.00  0.00    +0.000 OA
ATOM     41  H   UNL     1     119.135 154.335 134.863  0.00  0.00    +0.000 HD
ENDBRANCH  35  40
ENDBRANCH  29  30
ENDBRANCH  27  29
ENDBRANCH   2  27
TORSDOF 12
ENDMDL
MODEL 8
REMARK VINA RESULT:      -8.4     32.846     34.842
REMARK  Name = 65064
REMARK  12 active torsions:
REMARK  status: ('A' for Active; 'I' for Inactive)
REMARK    1  A    between atoms: O_2  and  C_12
REMARK    2  A    between atoms: O_2  and  C_24
REMARK    3  A    between atoms: O_3  and  C_18
REMARK    4  A    between atoms: O_4  and  C_23
REMARK    5  A    between atoms: O_5  and  C_25
REMARK    6  A    between atoms: O_6  and  C_26
REMARK    7  A    between atoms: O_8  and  C_27
REMARK    8  A    between atoms: O_9  and  C_31
REMARK    9  A    between atoms: O_10  and  C_32
REMARK   10  A    between atoms: O_11  and  C_33
REMARK   11  A    between atoms: C_13  and  C_16
REMARK   12  A    between atoms: C_24  and  C_28
REMARK                            x       y       z     vdW  Elec       q    Type
REMARK                         _______ _______ _______ _____ _____    ______ ____
ROOT
ATOM      1  O   UNL     1     112.467 109.624 146.085  0.00  0.00    +0.000 OA
ATOM      2  C   UNL     1     113.381 110.246 147.418  0.00  0.00    +0.000 C 
ATOM      3  C   UNL     1     113.167 109.500 146.788  0.00  0.00    +0.000 C 
ATOM      4  C   UNL     1     112.895 111.117 147.346  0.00  0.00    +0.000 C 
ATOM      5  C   UNL     1     112.195 111.242 146.643  0.00  0.00    +0.000 A 
ATOM      6  C   UNL     1     111.981 110.495 146.013  0.00  0.00    +0.000 A 
ATOM      7  C   UNL     1     111.697 112.155 146.579  0.00  0.00    +0.000 A 
ATOM      8  C   UNL     1     111.254 110.610 145.275  0.00  0.00    +0.000 A 
ATOM      9  C   UNL     1     110.967 112.292 145.850  0.00  0.00    +0.000 A 
ATOM     10  C   UNL     1     110.743 111.514 145.193  0.00  0.00    +0.000 A 
ENDROOT
BRANCH   3  11
ATOM     11  C   UNL     1     113.653 108.629 146.861  0.00  0.00    +0.000 A 
ATOM     12  C   UNL     1     114.545 108.516 146.424  0.00  0.00    +0.000 A 
ATOM     13  C   UNL     1     113.247 107.871 147.371  0.00  0.00    +0.000 A 
ATOM     14  C   UNL     1     113.733 107.000 147.444  0.00  0.00    +0.000 A 
ATOM     15  C   UNL     1     115.031 107.645 146.496  0.00  0.00    +0.000 A 
ATOM     16  C   UNL     1     114.625 106.887 147.007  0.00  0.00    +0.000 A 
BRANCH  14  17
ATOM     17  O   UNL     1     113.327 106.242 147.955  0.00  0.00    +0.000 OA
ATOM     18  H   UNL     1     113.605 105.688 147.960  0.00  0.00    +0.000 HD
ENDBRANCH  14  17
BRANCH  15  19
ATOM     19  O   UNL     1     115.923 107.533 146.059  0.00  0.00    +0.000 OA
ATOM     20  H   UNL     1     116.059 107.852 145.545  0.00  0.00    +0.000 HD
ENDBRANCH  15  19
BRANCH  16  21
ATOM     21  O   UNL     1     115.111 106.016 147.079  0.00  0.00    +0.000 OA
ATOM     22  H   UNL     1     115.633 105.979 147.413  0.00  0.00    +0.000 HD
ENDBRANCH  16  21
ENDBRANCH   3  11
BRANCH   7  23
ATOM     23  O   UNL     1     111.920 112.894 147.215  0.00  0.00    +0.000 OA
ATOM     24  H   UNL     1     111.613 112.945 147.751  0.00  0.00    +0.000 HD
ENDBRANCH   7  23
BRANCH  10  25
ATOM     25  O   UNL     1     110.044 111.635 144.489  0.00  0.00    +0.000 OA
ATOM     26  H   UNL     1     110.118 112.066 144.050  0.00  0.00    +0.000 HD
ENDBRANCH  10  25
BRANCH   2  27
ATOM     27  O   UNL     1     114.082 110.122 148.121  0.00  0.00    +0.000 OA
BRANCH  27  29
ATOM     28  O   UNL     1     113.449 110.868 149.551  0.00  0.00    +0.000 OA
ATOM     29  C   UNL     1     114.170 110.787 148.863  0.00  0.00    +0.000 C 
BRANCH  29  30
ATOM     30  C   UNL     1     114.979 111.372 148.916  0.00  0.00    +0.000 A 
ATOM     31  C   UNL     1     115.892 110.963 148.926  0.00  0.00    +0.000 A 
ATOM     32  C   UNL     1     114.876 112.366 148.959  0.00  0.00    +0.000 A 
ATOM     33  C   UNL     1     115.686 112.950 149.012  0.00  0.00    +0.000 A 
ATOM     34  C   UNL     1     116.701 111.548 148.979  0.00  0.00    +0.000 A 
ATOM     35  C   UNL     1     116.598 112.541 149.022  0.00  0.00    +0.000 A 
BRANCH  33  36
ATOM     36  O   UNL     1     115.583 113.944 149.055  0.00  0.00    +0.000 OA
ATOM     37  H   UNL     1     115.623 114.237 149.601  0.00  0.00    +0.000 HD
ENDBRANCH  33  36
BRANCH  34  38
ATOM     38  O   UNL     1     117.614 111.139 148.989  0.00  0.00    +0.000 OA
ATOM     39  H   UNL     1     117.680 110.532 149.097  0.00  0.00    +0.000 HD
ENDBRANCH  34  38
BRANCH  35  40
ATOM     40  O   UNL     1     117.408 113.126 149.075  0.00  0.00    +0.000 OA
ATOM     41  H   UNL     1     117.476 113.518 149.551  0.00  0.00    +0.000 HD
ENDBRANCH  35  40
ENDBRANCH  29  30
ENDBRANCH  27  29
ENDBRANCH   2  27
TORSDOF 12
ENDMDL
MODEL 9
REMARK VINA RESULT:      -8.3     19.980     22.154
REMARK  Name = 65064
REMARK  12 active torsions:
REMARK  status: ('A' for Active; 'I' for Inactive)
REMARK    1  A    between atoms: O_2  and  C_12
REMARK    2  A    between atoms: O_2  and  C_24
REMARK    3  A    between atoms: O_3  and  C_18
REMARK    4  A    between atoms: O_4  and  C_23
REMARK    5  A    between atoms: O_5  and  C_25
REMARK    6  A    between atoms: O_6  and  C_26
REMARK    7  A    between atoms: O_8  and  C_27
REMARK    8  A    between atoms: O_9  and  C_31
REMARK    9  A    between atoms: O_10  and  C_32
REMARK   10  A    between atoms: O_11  and  C_33
REMARK   11  A    between atoms: C_13  and  C_16
REMARK   12  A    between atoms: C_24  and  C_28
REMARK                            x       y       z     vdW  Elec       q    Type
REMARK                         _______ _______ _______ _____ _____    ______ ____
ROOT
ATOM      1  O   UNL     1     111.827 122.298 135.894  0.00  0.00    +0.000 OA
ATOM      2  C   UNL     1     110.565 121.186 135.483  0.00  0.00    +0.000 C 
ATOM      3  C   UNL     1     110.888 121.973 136.007  0.00  0.00    +0.000 C 
ATOM      4  C   UNL     1     111.180 120.723 134.844  0.00  0.00    +0.000 C 
ATOM      5  C   UNL     1     112.119 121.049 134.731  0.00  0.00    +0.000 A 
ATOM      6  C   UNL     1     112.442 121.836 135.255  0.00  0.00    +0.000 A 
ATOM      7  C   UNL     1     112.748 120.557 134.062  0.00  0.00    +0.000 A 
ATOM      8  C   UNL     1     113.418 122.187 135.148  0.00  0.00    +0.000 A 
ATOM      9  C   UNL     1     113.727 120.890 133.938  0.00  0.00    +0.000 A 
ATOM     10  C   UNL     1     114.064 121.710 134.485  0.00  0.00    +0.000 A 
ENDROOT
BRANCH   3  11
ATOM     11  C   UNL     1     110.273 122.436 136.646  0.00  0.00    +0.000 A 
ATOM     12  C   UNL     1     110.342 122.255 137.627  0.00  0.00    +0.000 A 
ATOM     13  C   UNL     1     109.588 123.079 136.303  0.00  0.00    +0.000 A 
ATOM     14  C   UNL     1     108.973 123.541 136.942  0.00  0.00    +0.000 A 
ATOM     15  C   UNL     1     109.727 122.717 138.265  0.00  0.00    +0.000 A 
ATOM     16  C   UNL     1     109.042 123.360 137.923  0.00  0.00    +0.000 A 
BRANCH  14  17
ATOM     17  O   UNL     1     108.288 124.184 136.599  0.00  0.00    +0.000 OA
ATOM     18  H   UNL     1     107.835 123.985 136.225  0.00  0.00    +0.000 HD
ENDBRANCH  14  17
BRANCH  15  19
ATOM     19  O   UNL     1     109.796 122.536 139.246  0.00  0.00    +0.000 OA
ATOM     20  H   UNL     1     109.421 122.830 139.643  0.00  0.00    +0.000 HD
ENDBRANCH  15  19
BRANCH  16  21
ATOM     21  O   UNL     1     108.427 123.822 138.561  0.00  0.00    +0.000 OA
ATOM     22  H   UNL     1     107.983 124.199 138.346  0.00  0.00    +0.000 HD
ENDBRANCH  16  21
ENDBRANCH   3  11
BRANCH   7  23
ATOM     23  O   UNL     1     112.414 119.770 133.542  0.00  0.00    +0.000 OA
ATOM     24  H   UNL     1     111.990 119.850 133.098  0.00  0.00    +0.000 HD
ENDBRANCH   7  23
BRANCH  10  25
ATOM     25  O   UNL     1     115.002 122.038 134.373  0.00  0.00    +0.000 OA
ATOM     26  H   UNL     1     115.473 121.720 134.622  0.00  0.00    +0.000 HD
ENDBRANCH  10  25
BRANCH   2  27
ATOM     27  O   UNL     1     109.626 120.861 135.596  0.00  0.00    +0.000 OA
BRANCH  27  29
ATOM     28  O   UNL     1     109.700 119.369 134.719  0.00  0.00    +0.000 OA
ATOM     29  C   UNL     1     109.424 119.883 135.531  0.00  0.00    +0.000 C 
BRANCH  29  30
ATOM     30  C   UNL     1     108.946 119.420 136.277  0.00  0.00    +0.000 A 
ATOM     31  C   UNL     1     107.993 119.648 136.478  0.00  0.00    +0.000 A 
ATOM     32  C   UNL     1     109.421 118.730 136.823  0.00  0.00    +0.000 A 
ATOM     33  C   UNL     1     108.944 118.267 137.570  0.00  0.00    +0.000 A 
ATOM     34  C   UNL     1     107.515 119.185 137.225  0.00  0.00    +0.000 A 
ATOM     35  C   UNL     1     107.991 118.494 137.770  0.00  0.00    +0.000 A 
BRANCH  33  36
ATOM     36  O   UNL     1     109.419 117.577 138.115  0.00  0.00    +0.000 OA
ATOM     37  H   UNL     1     110.026 117.481 138.033  0.00  0.00    +0.000 HD
ENDBRANCH  33  36
BRANCH  34  38
ATOM     38  O   UNL     1     106.562 119.412 137.425  0.00  0.00    +0.000 OA
ATOM     39  H   UNL     1     106.104 119.116 137.129  0.00  0.00    +0.000 HD
ENDBRANCH  34  38
BRANCH  35  40
ATOM     40  O   UNL     1     107.513 118.031 138.517  0.00  0.00    +0.000 OA
ATOM     41  H   UNL     1     107.825 117.657 138.900  0.00  0.00    +0.000 HD
ENDBRANCH  35  40
ENDBRANCH  29  30
ENDBRANCH  27  29
ENDBRANCH   2  27
TORSDOF 12
ENDMDL
