MODEL 1
REMARK VINA RESULT:     -10.0      0.000      0.000
REMARK  Name = 72277
REMARK  7 active torsions:
REMARK  status: ('A' for Active; 'I' for Inactive)
REMARK    1  A    between atoms: O_2  and  C_8
REMARK    2  A    between atoms: O_3  and  C_14
REMARK    3  A    between atoms: O_4  and  C_19
REMARK    4  A    between atoms: O_5  and  C_20
REMARK    5  A    between atoms: O_6  and  C_21
REMARK    6  A    between atoms: O_7  and  C_22
REMARK    7  A    between atoms: C_9  and  C_12
REMARK                            x       y       z     vdW  Elec       q    Type
REMARK                         _______ _______ _______ _____ _____    ______ ____
ROOT
ATOM      1  O   UNL     1     113.148 129.229  87.012  0.00  0.00    +0.000 OA
ATOM      2  C   UNL     1     114.687 129.657  87.683  0.00  0.00    +0.000 C 
ATOM      3  C   UNL     1     114.120 129.431  86.890  0.00  0.00    +0.000 C 
ATOM      4  C   UNL     1     114.282 129.681  88.597  0.00  0.00    +0.000 C 
ATOM      5  C   UNL     1     113.310 129.479  88.719  0.00  0.00    +0.000 A 
ATOM      6  C   UNL     1     112.743 129.253  87.926  0.00  0.00    +0.000 A 
ATOM      7  C   UNL     1     112.902 129.508  89.676  0.00  0.00    +0.000 A 
ATOM      8  C   UNL     1     111.729 129.041  88.037  0.00  0.00    +0.000 A 
ATOM      9  C   UNL     1     111.891 129.299  89.811  0.00  0.00    +0.000 A 
ATOM     10  C   UNL     1     111.301 129.064  88.986  0.00  0.00    +0.000 A 
ENDROOT
BRANCH   3  11
ATOM     11  C   UNL     1     114.524 129.407  85.976  0.00  0.00    +0.000 A 
ATOM     12  C   UNL     1     113.963 129.616  85.175  0.00  0.00    +0.000 A 
ATOM     13  C   UNL     1     115.490 129.175  85.863  0.00  0.00    +0.000 A 
ATOM     14  C   UNL     1     115.895 129.151  84.949  0.00  0.00    +0.000 A 
ATOM     15  C   UNL     1     114.368 129.592  84.261  0.00  0.00    +0.000 A 
ATOM     16  C   UNL     1     115.334 129.359  84.148  0.00  0.00    +0.000 A 
BRANCH  14  17
ATOM     17  O   UNL     1     116.861 128.918  84.836  0.00  0.00    +0.000 OA
ATOM     18  H   UNL     1     117.026 128.449  84.465  0.00  0.00    +0.000 HD
ENDBRANCH  14  17
BRANCH  15  19
ATOM     19  O   UNL     1     113.807 129.801  83.460  0.00  0.00    +0.000 OA
ATOM     20  H   UNL     1     113.991 129.619  82.897  0.00  0.00    +0.000 HD
ENDBRANCH  15  19
BRANCH  16  21
ATOM     21  O   UNL     1     115.739 129.335  83.234  0.00  0.00    +0.000 OA
ATOM     22  H   UNL     1     115.466 129.637  82.766  0.00  0.00    +0.000 HD
ENDBRANCH  16  21
ENDBRANCH   3  11
BRANCH   2  23
ATOM     23  O   UNL     1     115.658 129.859  87.561  0.00  0.00    +0.000 OA
ATOM     24  H   UNL     1     116.028 129.448  87.280  0.00  0.00    +0.000 HD
ENDBRANCH   2  23
BRANCH   7  25
ATOM     25  O   UNL     1     113.479 129.735  90.461  0.00  0.00    +0.000 OA
ATOM     26  H   UNL     1     114.093 129.779  90.392  0.00  0.00    +0.000 HD
ENDBRANCH   7  25
BRANCH  10  27
ATOM     27  O   UNL     1     110.329 128.861  89.105  0.00  0.00    +0.000 OA
ATOM     28  H   UNL     1     109.968 128.771  88.610  0.00  0.00    +0.000 HD
ENDBRANCH  10  27
TORSDOF 7
ENDMDL
MODEL 2
REMARK VINA RESULT:      -9.3      1.365      4.971
REMARK  Name = 72277
REMARK  7 active torsions:
REMARK  status: ('A' for Active; 'I' for Inactive)
REMARK    1  A    between atoms: O_2  and  C_8
REMARK    2  A    between atoms: O_3  and  C_14
REMARK    3  A    between atoms: O_4  and  C_19
REMARK    4  A    between atoms: O_5  and  C_20
REMARK    5  A    between atoms: O_6  and  C_21
REMARK    6  A    between atoms: O_7  and  C_22
REMARK    7  A    between atoms: C_9  and  C_12
REMARK                            x       y       z     vdW  Elec       q    Type
REMARK                         _______ _______ _______ _____ _____    ______ ____
ROOT
ATOM      1  O   UNL     1     113.063 128.791  85.936  0.00  0.00    +0.000 OA
ATOM      2  C   UNL     1     113.601 129.104  87.552  0.00  0.00    +0.000 C 
ATOM      3  C   UNL     1     112.907 128.755  86.923  0.00  0.00    +0.000 C 
ATOM      4  C   UNL     1     114.452 129.490  87.194  0.00  0.00    +0.000 C 
ATOM      5  C   UNL     1     114.608 129.526  86.207  0.00  0.00    +0.000 A 
ATOM      6  C   UNL     1     113.913 129.177  85.578  0.00  0.00    +0.000 A 
ATOM      7  C   UNL     1     115.498 129.930  85.849  0.00  0.00    +0.000 A 
ATOM      8  C   UNL     1     114.062 129.208  84.547  0.00  0.00    +0.000 A 
ATOM      9  C   UNL     1     115.668 129.971  84.822  0.00  0.00    +0.000 A 
ATOM     10  C   UNL     1     114.945 129.608  84.167  0.00  0.00    +0.000 A 
ENDROOT
BRANCH   3  11
ATOM     11  C   UNL     1     112.056 128.370  87.280  0.00  0.00    +0.000 A 
ATOM     12  C   UNL     1     111.698 127.514  86.906  0.00  0.00    +0.000 A 
ATOM     13  C   UNL     1     111.563 128.840  88.012  0.00  0.00    +0.000 A 
ATOM     14  C   UNL     1     110.713 128.454  88.370  0.00  0.00    +0.000 A 
ATOM     15  C   UNL     1     110.848 127.129  87.264  0.00  0.00    +0.000 A 
ATOM     16  C   UNL     1     110.355 127.599  87.996  0.00  0.00    +0.000 A 
BRANCH  14  17
ATOM     17  O   UNL     1     110.220 128.924  89.102  0.00  0.00    +0.000 OA
ATOM     18  H   UNL     1     109.832 129.389  88.966  0.00  0.00    +0.000 HD
ENDBRANCH  14  17
BRANCH  15  19
ATOM     19  O   UNL     1     110.490 126.273  86.889  0.00  0.00    +0.000 OA
ATOM     20  H   UNL     1     110.865 125.892  86.575  0.00  0.00    +0.000 HD
ENDBRANCH  15  19
BRANCH  16  21
ATOM     21  O   UNL     1     109.504 127.213  88.353  0.00  0.00    +0.000 OA
ATOM     22  H   UNL     1     109.149 126.857  87.991  0.00  0.00    +0.000 HD
ENDBRANCH  16  21
ENDBRANCH   3  11
BRANCH   2  23
ATOM     23  O   UNL     1     113.445 129.068  88.539  0.00  0.00    +0.000 OA
ATOM     24  H   UNL     1     112.882 129.190  88.768  0.00  0.00    +0.000 HD
ENDBRANCH   2  23
BRANCH   7  25
ATOM     25  O   UNL     1     116.186 130.276  86.488  0.00  0.00    +0.000 OA
ATOM     26  H   UNL     1     116.787 130.177  86.379  0.00  0.00    +0.000 HD
ENDBRANCH   7  25
BRANCH  10  27
ATOM     27  O   UNL     1     115.098 129.643  83.180  0.00  0.00    +0.000 OA
ATOM     28  H   UNL     1     114.998 129.140  82.832  0.00  0.00    +0.000 HD
ENDBRANCH  10  27
TORSDOF 7
ENDMDL
MODEL 3
REMARK VINA RESULT:      -9.1     60.626     63.071
REMARK  Name = 72277
REMARK  7 active torsions:
REMARK  status: ('A' for Active; 'I' for Inactive)
REMARK    1  A    between atoms: O_2  and  C_8
REMARK    2  A    between atoms: O_3  and  C_14
REMARK    3  A    between atoms: O_4  and  C_19
REMARK    4  A    between atoms: O_5  and  C_20
REMARK    5  A    between atoms: O_6  and  C_21
REMARK    6  A    between atoms: O_7  and  C_22
REMARK    7  A    between atoms: C_9  and  C_12
REMARK                            x       y       z     vdW  Elec       q    Type
REMARK                         _______ _______ _______ _____ _____    ______ ____
ROOT
ATOM      1  O   UNL     1     112.653 109.942 146.628  0.00  0.00    +0.000 OA
ATOM      2  C   UNL     1     111.255 109.780 147.638  0.00  0.00    +0.000 C 
ATOM      3  C   UNL     1     111.745 110.255 146.907  0.00  0.00    +0.000 C 
ATOM      4  C   UNL     1     111.673 108.991 148.089  0.00  0.00    +0.000 C 
ATOM      5  C   UNL     1     112.580 108.678 147.810  0.00  0.00    +0.000 A 
ATOM      6  C   UNL     1     113.070 109.154 147.080  0.00  0.00    +0.000 A 
ATOM      7  C   UNL     1     113.003 107.856 148.289  0.00  0.00    +0.000 A 
ATOM      8  C   UNL     1     114.017 108.839 146.778  0.00  0.00    +0.000 A 
ATOM      9  C   UNL     1     113.948 107.524 148.004  0.00  0.00    +0.000 A 
ATOM     10  C   UNL     1     114.458 108.019 147.243  0.00  0.00    +0.000 A 
ENDROOT
BRANCH   3  11
ATOM     11  C   UNL     1     111.327 111.044 146.456  0.00  0.00    +0.000 A 
ATOM     12  C   UNL     1     111.234 111.910 146.947  0.00  0.00    +0.000 A 
ATOM     13  C   UNL     1     111.003 110.966 145.513  0.00  0.00    +0.000 A 
ATOM     14  C   UNL     1     110.586 111.755 145.062  0.00  0.00    +0.000 A 
ATOM     15  C   UNL     1     110.816 112.698 146.496  0.00  0.00    +0.000 A 
ATOM     16  C   UNL     1     110.492 112.621 145.553  0.00  0.00    +0.000 A 
BRANCH  14  17
ATOM     17  O   UNL     1     110.262 111.678 144.119  0.00  0.00    +0.000 OA
ATOM     18  H   UNL     1     109.950 112.146 143.859  0.00  0.00    +0.000 HD
ENDBRANCH  14  17
BRANCH  15  19
ATOM     19  O   UNL     1     110.723 113.564 146.987  0.00  0.00    +0.000 OA
ATOM     20  H   UNL     1     110.622 113.564 147.599  0.00  0.00    +0.000 HD
ENDBRANCH  15  19
BRANCH  16  21
ATOM     21  O   UNL     1     110.075 113.409 145.102  0.00  0.00    +0.000 OA
ATOM     22  H   UNL     1     110.430 113.876 144.901  0.00  0.00    +0.000 HD
ENDBRANCH  16  21
ENDBRANCH   3  11
BRANCH   2  23
ATOM     23  O   UNL     1     110.347 110.093 147.917  0.00  0.00    +0.000 OA
ATOM     24  H   UNL     1     109.914 109.681 148.081  0.00  0.00    +0.000 HD
ENDBRANCH   2  23
BRANCH   7  25
ATOM     25  O   UNL     1     112.503 107.388 149.019  0.00  0.00    +0.000 OA
ATOM     26  H   UNL     1     112.720 107.399 149.599  0.00  0.00    +0.000 HD
ENDBRANCH   7  25
BRANCH  10  27
ATOM     27  O   UNL     1     115.366 107.708 146.962  0.00  0.00    +0.000 OA
ATOM     28  H   UNL     1     115.536 107.121 147.057  0.00  0.00    +0.000 HD
ENDBRANCH  10  27
TORSDOF 7
ENDMDL
MODEL 4
REMARK VINA RESULT:      -9.1     10.018     12.364
REMARK  Name = 72277
REMARK  7 active torsions:
REMARK  status: ('A' for Active; 'I' for Inactive)
REMARK    1  A    between atoms: O_2  and  C_8
REMARK    2  A    between atoms: O_3  and  C_14
REMARK    3  A    between atoms: O_4  and  C_19
REMARK    4  A    between atoms: O_5  and  C_20
REMARK    5  A    between atoms: O_6  and  C_21
REMARK    6  A    between atoms: O_7  and  C_22
REMARK    7  A    between atoms: C_9  and  C_12
REMARK                            x       y       z     vdW  Elec       q    Type
REMARK                         _______ _______ _______ _____ _____    ______ ____
ROOT
ATOM      1  O   UNL     1     125.102 130.036  86.641  0.00  0.00    +0.000 OA
ATOM      2  C   UNL     1     125.476 131.726  86.716  0.00  0.00    +0.000 C 
ATOM      3  C   UNL     1     125.649 130.786  87.012  0.00  0.00    +0.000 C 
ATOM      4  C   UNL     1     124.756 131.915  86.048  0.00  0.00    +0.000 C 
ATOM      5  C   UNL     1     124.208 131.165  85.677  0.00  0.00    +0.000 A 
ATOM      6  C   UNL     1     124.381 130.225  85.973  0.00  0.00    +0.000 A 
ATOM      7  C   UNL     1     123.462 131.377  84.983  0.00  0.00    +0.000 A 
ATOM      8  C   UNL     1     123.820 129.433  85.596  0.00  0.00    +0.000 A 
ATOM      9  C   UNL     1     122.888 130.601  84.592  0.00  0.00    +0.000 A 
ATOM     10  C   UNL     1     123.068 129.623  84.900  0.00  0.00    +0.000 A 
ENDROOT
BRANCH   3  11
ATOM     11  C   UNL     1     126.369 130.597  87.679  0.00  0.00    +0.000 A 
ATOM     12  C   UNL     1     127.265 130.278  87.371  0.00  0.00    +0.000 A 
ATOM     13  C   UNL     1     126.194 130.727  88.655  0.00  0.00    +0.000 A 
ATOM     14  C   UNL     1     126.914 130.538  89.322  0.00  0.00    +0.000 A 
ATOM     15  C   UNL     1     127.986 130.089  88.038  0.00  0.00    +0.000 A 
ATOM     16  C   UNL     1     127.810 130.219  89.014  0.00  0.00    +0.000 A 
BRANCH  14  17
ATOM     17  O   UNL     1     126.738 130.668  90.298  0.00  0.00    +0.000 OA
ATOM     18  H   UNL     1     127.183 130.545  90.712  0.00  0.00    +0.000 HD
ENDBRANCH  14  17
BRANCH  15  19
ATOM     19  O   UNL     1     128.882 129.769  87.730  0.00  0.00    +0.000 OA
ATOM     20  H   UNL     1     129.216 129.391  88.089  0.00  0.00    +0.000 HD
ENDBRANCH  15  19
BRANCH  16  21
ATOM     21  O   UNL     1     128.530 130.029  89.681  0.00  0.00    +0.000 OA
ATOM     22  H   UNL     1     128.430 130.136  90.284  0.00  0.00    +0.000 HD
ENDBRANCH  16  21
ENDBRANCH   3  11
BRANCH   2  23
ATOM     23  O   UNL     1     126.023 132.476  87.087  0.00  0.00    +0.000 OA
ATOM     24  H   UNL     1     125.959 133.049  86.859  0.00  0.00    +0.000 HD
ENDBRANCH   2  23
BRANCH   7  25
ATOM     25  O   UNL     1     123.298 132.320  84.694  0.00  0.00    +0.000 OA
ATOM     26  H   UNL     1     123.773 132.712  84.631  0.00  0.00    +0.000 HD
ENDBRANCH   7  25
BRANCH  10  27
ATOM     27  O   UNL     1     122.522 128.871  84.531  0.00  0.00    +0.000 OA
ATOM     28  H   UNL     1     121.951 128.977  84.318  0.00  0.00    +0.000 HD
ENDBRANCH  10  27
TORSDOF 7
ENDMDL
MODEL 5
REMARK VINA RESULT:      -9.0     51.083     53.346
REMARK  Name = 72277
REMARK  7 active torsions:
REMARK  status: ('A' for Active; 'I' for Inactive)
REMARK    1  A    between atoms: O_2  and  C_8
REMARK    2  A    between atoms: O_3  and  C_14
REMARK    3  A    between atoms: O_4  and  C_19
REMARK    4  A    between atoms: O_5  and  C_20
REMARK    5  A    between atoms: O_6  and  C_21
REMARK    6  A    between atoms: O_7  and  C_22
REMARK    7  A    between atoms: C_9  and  C_12
REMARK                            x       y       z     vdW  Elec       q    Type
REMARK                         _______ _______ _______ _____ _____    ______ ____
ROOT
ATOM      1  O   UNL     1     107.278 120.554 138.925  0.00  0.00    +0.000 OA
ATOM      2  C   UNL     1     107.292 121.701 140.222  0.00  0.00    +0.000 C 
ATOM      3  C   UNL     1     107.544 121.447 139.289  0.00  0.00    +0.000 C 
ATOM      4  C   UNL     1     106.774 121.063 140.792  0.00  0.00    +0.000 C 
ATOM      5  C   UNL     1     106.508 120.170 140.428  0.00  0.00    +0.000 A 
ATOM      6  C   UNL     1     106.761 119.916 139.494  0.00  0.00    +0.000 A 
ATOM      7  C   UNL     1     105.970 119.516 141.033  0.00  0.00    +0.000 A 
ATOM      8  C   UNL     1     106.491 118.989 139.101  0.00  0.00    +0.000 A 
ATOM      9  C   UNL     1     105.690 118.584 140.660  0.00  0.00    +0.000 A 
ATOM     10  C   UNL     1     105.952 118.319 139.688  0.00  0.00    +0.000 A 
ENDROOT
BRANCH   3  11
ATOM     11  C   UNL     1     108.062 122.085 138.719  0.00  0.00    +0.000 A 
ATOM     12  C   UNL     1     107.583 122.678 138.071  0.00  0.00    +0.000 A 
ATOM     13  C   UNL     1     109.058 122.130 138.797  0.00  0.00    +0.000 A 
ATOM     14  C   UNL     1     109.575 122.768 138.227  0.00  0.00    +0.000 A 
ATOM     15  C   UNL     1     108.101 123.317 137.502  0.00  0.00    +0.000 A 
ATOM     16  C   UNL     1     109.097 123.362 137.579  0.00  0.00    +0.000 A 
BRANCH  14  17
ATOM     17  O   UNL     1     110.571 122.813 138.305  0.00  0.00    +0.000 OA
ATOM     18  H   UNL     1     110.919 122.893 137.797  0.00  0.00    +0.000 HD
ENDBRANCH  14  17
BRANCH  15  19
ATOM     19  O   UNL     1     107.623 123.910 136.854  0.00  0.00    +0.000 OA
ATOM     20  H   UNL     1     107.208 123.669 136.461  0.00  0.00    +0.000 HD
ENDBRANCH  15  19
BRANCH  16  21
ATOM     21  O   UNL     1     109.615 124.000 137.010  0.00  0.00    +0.000 OA
ATOM     22  H   UNL     1     109.319 124.447 136.699  0.00  0.00    +0.000 HD
ENDBRANCH  16  21
ENDBRANCH   3  11
BRANCH   2  23
ATOM     23  O   UNL     1     107.557 122.594 140.586  0.00  0.00    +0.000 OA
ATOM     24  H   UNL     1     108.081 122.652 140.913  0.00  0.00    +0.000 HD
ENDBRANCH   2  23
BRANCH   7  25
ATOM     25  O   UNL     1     105.723 119.781 141.965  0.00  0.00    +0.000 OA
ATOM     26  H   UNL     1     105.351 119.417 142.302  0.00  0.00    +0.000 HD
ENDBRANCH   7  25
BRANCH  10  27
ATOM     27  O   UNL     1     105.688 117.427 139.322  0.00  0.00    +0.000 OA
ATOM     28  H   UNL     1     105.920 117.233 138.781  0.00  0.00    +0.000 HD
ENDBRANCH  10  27
TORSDOF 7
ENDMDL
MODEL 6
REMARK VINA RESULT:      -8.9      9.659     12.203
REMARK  Name = 72277
REMARK  7 active torsions:
REMARK  status: ('A' for Active; 'I' for Inactive)
REMARK    1  A    between atoms: O_2  and  C_8
REMARK    2  A    between atoms: O_3  and  C_14
REMARK    3  A    between atoms: O_4  and  C_19
REMARK    4  A    between atoms: O_5  and  C_20
REMARK    5  A    between atoms: O_6  and  C_21
REMARK    6  A    between atoms: O_7  and  C_22
REMARK    7  A    between atoms: C_9  and  C_12
REMARK                            x       y       z     vdW  Elec       q    Type
REMARK                         _______ _______ _______ _____ _____    ______ ____
ROOT
ATOM      1  O   UNL     1     125.572 130.396  85.974  0.00  0.00    +0.000 OA
ATOM      2  C   UNL     1     125.466 131.198  87.506  0.00  0.00    +0.000 C 
ATOM      3  C   UNL     1     125.024 130.834  86.686  0.00  0.00    +0.000 C 
ATOM      4  C   UNL     1     126.457 131.123  87.613  0.00  0.00    +0.000 C 
ATOM      5  C   UNL     1     127.006 130.686  86.901  0.00  0.00    +0.000 A 
ATOM      6  C   UNL     1     126.564 130.322  86.081  0.00  0.00    +0.000 A 
ATOM      7  C   UNL     1     128.038 130.616  87.027  0.00  0.00    +0.000 A 
ATOM      8  C   UNL     1     127.122 129.864  85.331  0.00  0.00    +0.000 A 
ATOM      9  C   UNL     1     128.616 130.161  86.289  0.00  0.00    +0.000 A 
ATOM     10  C   UNL     1     128.155 129.783  85.436  0.00  0.00    +0.000 A 
ENDROOT
BRANCH   3  11
ATOM     11  C   UNL     1     124.032 130.908  86.578  0.00  0.00    +0.000 A 
ATOM     12  C   UNL     1     123.637 131.709  86.129  0.00  0.00    +0.000 A 
ATOM     13  C   UNL     1     123.436 130.181  86.919  0.00  0.00    +0.000 A 
ATOM     14  C   UNL     1     122.445 130.256  86.812  0.00  0.00    +0.000 A 
ATOM     15  C   UNL     1     122.645 131.783  86.021  0.00  0.00    +0.000 A 
ATOM     16  C   UNL     1     122.049 131.057  86.362  0.00  0.00    +0.000 A 
BRANCH  14  17
ATOM     17  O   UNL     1     121.849 129.529  87.153  0.00  0.00    +0.000 OA
ATOM     18  H   UNL     1     122.089 128.978  87.308  0.00  0.00    +0.000 HD
ENDBRANCH  14  17
BRANCH  15  19
ATOM     19  O   UNL     1     122.250 132.584  85.572  0.00  0.00    +0.000 OA
ATOM     20  H   UNL     1     122.561 132.871  85.119  0.00  0.00    +0.000 HD
ENDBRANCH  15  19
BRANCH  16  21
ATOM     21  O   UNL     1     121.058 131.131  86.255  0.00  0.00    +0.000 OA
ATOM     22  H   UNL     1     120.721 130.625  86.134  0.00  0.00    +0.000 HD
ENDBRANCH  16  21
ENDBRANCH   3  11
BRANCH   2  23
ATOM     23  O   UNL     1     124.917 131.635  88.218  0.00  0.00    +0.000 OA
ATOM     24  H   UNL     1     124.606 131.288  88.626  0.00  0.00    +0.000 HD
ENDBRANCH   2  23
BRANCH   7  25
ATOM     25  O   UNL     1     128.469 130.983  87.851  0.00  0.00    +0.000 OA
ATOM     26  H   UNL     1     128.910 131.416  87.803  0.00  0.00    +0.000 HD
ENDBRANCH   7  25
BRANCH  10  27
ATOM     27  O   UNL     1     128.701 129.345  84.722  0.00  0.00    +0.000 OA
ATOM     28  H   UNL     1     129.316 129.421  84.710  0.00  0.00    +0.000 HD
ENDBRANCH  10  27
TORSDOF 7
ENDMDL
MODEL 7
REMARK VINA RESULT:      -8.9     33.870     35.939
REMARK  Name = 72277
REMARK  7 active torsions:
REMARK  status: ('A' for Active; 'I' for Inactive)
REMARK    1  A    between atoms: O_2  and  C_8
REMARK    2  A    between atoms: O_3  and  C_14
REMARK    3  A    between atoms: O_4  and  C_19
REMARK    4  A    between atoms: O_5  and  C_20
REMARK    5  A    between atoms: O_6  and  C_21
REMARK    6  A    between atoms: O_7  and  C_22
REMARK    7  A    between atoms: C_9  and  C_12
REMARK                            x       y       z     vdW  Elec       q    Type
REMARK                         _______ _______ _______ _____ _____    ______ ____
ROOT
ATOM      1  O   UNL     1     124.051 112.626 116.215  0.00  0.00    +0.000 OA
ATOM      2  C   UNL     1     124.531 113.871 117.319  0.00  0.00    +0.000 C 
ATOM      3  C   UNL     1     123.934 113.103 117.085  0.00  0.00    +0.000 C 
ATOM      4  C   UNL     1     125.245 114.161 116.681  0.00  0.00    +0.000 C 
ATOM      5  C   UNL     1     125.362 113.684 115.810  0.00  0.00    +0.000 A 
ATOM      6  C   UNL     1     124.765 112.916 115.577  0.00  0.00    +0.000 A 
ATOM      7  C   UNL     1     126.109 113.997 115.156  0.00  0.00    +0.000 A 
ATOM      8  C   UNL     1     124.874 112.409 114.674  0.00  0.00    +0.000 A 
ATOM      9  C   UNL     1     126.237 113.504 114.247  0.00  0.00    +0.000 A 
ATOM     10  C   UNL     1     125.615 112.705 114.005  0.00  0.00    +0.000 A 
ENDROOT
BRANCH   3  11
ATOM     11  C   UNL     1     123.221 112.813 117.723  0.00  0.00    +0.000 A 
ATOM     12  C   UNL     1     122.379 113.347 117.808  0.00  0.00    +0.000 A 
ATOM     13  C   UNL     1     123.348 111.989 118.275  0.00  0.00    +0.000 A 
ATOM     14  C   UNL     1     122.635 111.699 118.913  0.00  0.00    +0.000 A 
ATOM     15  C   UNL     1     121.666 113.056 118.446  0.00  0.00    +0.000 A 
ATOM     16  C   UNL     1     121.793 112.233 118.998  0.00  0.00    +0.000 A 
BRANCH  14  17
ATOM     17  O   UNL     1     122.763 110.875 119.465  0.00  0.00    +0.000 OA
ATOM     18  H   UNL     1     123.277 110.806 119.804  0.00  0.00    +0.000 HD
ENDBRANCH  14  17
BRANCH  15  19
ATOM     19  O   UNL     1     120.824 113.590 118.531  0.00  0.00    +0.000 OA
ATOM     20  H   UNL     1     120.611 113.913 118.046  0.00  0.00    +0.000 HD
ENDBRANCH  15  19
BRANCH  16  21
ATOM     21  O   UNL     1     121.080 111.942 119.636  0.00  0.00    +0.000 OA
ATOM     22  H   UNL     1     120.696 111.481 119.482  0.00  0.00    +0.000 HD
ENDBRANCH  16  21
ENDBRANCH   3  11
BRANCH   2  23
ATOM     23  O   UNL     1     124.414 114.348 118.190  0.00  0.00    +0.000 OA
ATOM     24  H   UNL     1     124.911 114.546 118.504  0.00  0.00    +0.000 HD
ENDBRANCH   2  23
BRANCH   7  25
ATOM     25  O   UNL     1     126.700 114.766 115.400  0.00  0.00    +0.000 OA
ATOM     26  H   UNL     1     126.902 115.153 114.960  0.00  0.00    +0.000 HD
ENDBRANCH   7  25
BRANCH  10  27
ATOM     27  O   UNL     1     125.729 112.226 113.135  0.00  0.00    +0.000 OA
ATOM     28  H   UNL     1     125.250 111.927 112.880  0.00  0.00    +0.000 HD
ENDBRANCH  10  27
TORSDOF 7
ENDMDL
MODEL 8
REMARK VINA RESULT:      -8.8      9.340     11.959
REMARK  Name = 72277
REMARK  7 active torsions:
REMARK  status: ('A' for Active; 'I' for Inactive)
REMARK    1  A    between atoms: O_2  and  C_8
REMARK    2  A    between atoms: O_3  and  C_14
REMARK    3  A    between atoms: O_4  and  C_19
REMARK    4  A    between atoms: O_5  and  C_20
REMARK    5  A    between atoms: O_6  and  C_21
REMARK    6  A    between atoms: O_7  and  C_22
REMARK    7  A    between atoms: C_9  and  C_12
REMARK                            x       y       z     vdW  Elec       q    Type
REMARK                         _______ _______ _______ _____ _____    ______ ____
ROOT
ATOM      1  O   UNL     1     125.317 130.603  87.023  0.00  0.00    +0.000 OA
ATOM      2  C   UNL     1     125.130 130.082  85.382  0.00  0.00    +0.000 C 
ATOM      3  C   UNL     1     124.735 130.446  86.226  0.00  0.00    +0.000 C 
ATOM      4  C   UNL     1     126.107 129.876  85.336  0.00  0.00    +0.000 C 
ATOM      5  C   UNL     1     126.690 130.034  86.133  0.00  0.00    +0.000 A 
ATOM      6  C   UNL     1     126.295 130.398  86.977  0.00  0.00    +0.000 A 
ATOM      7  C   UNL     1     127.706 129.815  86.070  0.00  0.00    +0.000 A 
ATOM      8  C   UNL     1     126.889 130.567  87.816  0.00  0.00    +0.000 A 
ATOM      9  C   UNL     1     128.319 129.977  86.896  0.00  0.00    +0.000 A 
ATOM     10  C   UNL     1     127.908 130.355  87.775  0.00  0.00    +0.000 A 
ENDROOT
BRANCH   3  11
ATOM     11  C   UNL     1     123.757 130.651  86.272  0.00  0.00    +0.000 A 
ATOM     12  C   UNL     1     123.113 129.952  86.582  0.00  0.00    +0.000 A 
ATOM     13  C   UNL     1     123.424 131.557  86.009  0.00  0.00    +0.000 A 
ATOM     14  C   UNL     1     122.446 131.763  86.055  0.00  0.00    +0.000 A 
ATOM     15  C   UNL     1     122.136 130.158  86.629  0.00  0.00    +0.000 A 
ATOM     16  C   UNL     1     121.802 131.063  86.365  0.00  0.00    +0.000 A 
BRANCH  14  17
ATOM     17  O   UNL     1     122.113 132.668  85.792  0.00  0.00    +0.000 OA
ATOM     18  H   UNL     1     121.504 132.773  85.748  0.00  0.00    +0.000 HD
ENDBRANCH  14  17
BRANCH  15  19
ATOM     19  O   UNL     1     121.492 129.459  86.939  0.00  0.00    +0.000 OA
ATOM     20  H   UNL     1     121.487 128.900  86.670  0.00  0.00    +0.000 HD
ENDBRANCH  15  19
BRANCH  16  21
ATOM     21  O   UNL     1     120.825 131.269  86.412  0.00  0.00    +0.000 OA
ATOM     22  H   UNL     1     120.608 131.642  86.857  0.00  0.00    +0.000 HD
ENDBRANCH  16  21
ENDBRANCH   3  11
BRANCH   2  23
ATOM     23  O   UNL     1     124.547 129.924  84.585  0.00  0.00    +0.000 OA
ATOM     24  H   UNL     1     124.516 129.359  84.331  0.00  0.00    +0.000 HD
ENDBRANCH   2  23
BRANCH   7  25
ATOM     25  O   UNL     1     128.090 129.451  85.221  0.00  0.00    +0.000 OA
ATOM     26  H   UNL     1     128.347 128.887  85.214  0.00  0.00    +0.000 HD
ENDBRANCH   7  25
BRANCH  10  27
ATOM     27  O   UNL     1     128.488 130.514  88.574  0.00  0.00    +0.000 OA
ATOM     28  H   UNL     1     128.521 130.089  89.022  0.00  0.00    +0.000 HD
ENDBRANCH  10  27
TORSDOF 7
ENDMDL
MODEL 9
REMARK VINA RESULT:      -8.8      9.942     12.017
REMARK  Name = 72277
REMARK  7 active torsions:
REMARK  status: ('A' for Active; 'I' for Inactive)
REMARK    1  A    between atoms: O_2  and  C_8
REMARK    2  A    between atoms: O_3  and  C_14
REMARK    3  A    between atoms: O_4  and  C_19
REMARK    4  A    between atoms: O_5  and  C_20
REMARK    5  A    between atoms: O_6  and  C_21
REMARK    6  A    between atoms: O_7  and  C_22
REMARK    7  A    between atoms: C_9  and  C_12
REMARK                            x       y       z     vdW  Elec       q    Type
REMARK                         _______ _______ _______ _____ _____    ______ ____
ROOT
ATOM      1  O   UNL     1     125.088 130.142  86.174  0.00  0.00    +0.000 OA
ATOM      2  C   UNL     1     125.183 131.162  87.571  0.00  0.00    +0.000 C 
ATOM      3  C   UNL     1     125.635 130.652  86.839  0.00  0.00    +0.000 C 
ATOM      4  C   UNL     1     124.186 131.162  87.639  0.00  0.00    +0.000 C 
ATOM      5  C   UNL     1     123.639 130.653  86.974  0.00  0.00    +0.000 A 
ATOM      6  C   UNL     1     124.090 130.143  86.242  0.00  0.00    +0.000 A 
ATOM      7  C   UNL     1     122.601 130.663  87.057  0.00  0.00    +0.000 A 
ATOM      8  C   UNL     1     123.535 129.607  85.542  0.00  0.00    +0.000 A 
ATOM      9  C   UNL     1     122.025 130.134  86.368  0.00  0.00    +0.000 A 
ATOM     10  C   UNL     1     122.495 129.603  85.606  0.00  0.00    +0.000 A 
ENDROOT
BRANCH   3  11
ATOM     11  C   UNL     1     126.632 130.651  86.771  0.00  0.00    +0.000 A 
ATOM     12  C   UNL     1     127.178 130.126  87.424  0.00  0.00    +0.000 A 
ATOM     13  C   UNL     1     127.085 131.177  86.050  0.00  0.00    +0.000 A 
ATOM     14  C   UNL     1     128.083 131.176  85.982  0.00  0.00    +0.000 A 
ATOM     15  C   UNL     1     128.175 130.125  87.356  0.00  0.00    +0.000 A 
ATOM     16  C   UNL     1     128.628 130.650  86.635  0.00  0.00    +0.000 A 
BRANCH  14  17
ATOM     17  O   UNL     1     128.535 131.702  85.262  0.00  0.00    +0.000 OA
ATOM     18  H   UNL     1     128.605 132.315  85.322  0.00  0.00    +0.000 HD
ENDBRANCH  14  17
BRANCH  15  19
ATOM     19  O   UNL     1     128.720 129.599  88.009  0.00  0.00    +0.000 OA
ATOM     20  H   UNL     1     129.235 129.309  87.820  0.00  0.00    +0.000 HD
ENDBRANCH  15  19
BRANCH  16  21
ATOM     21  O   UNL     1     129.625 130.650  86.568  0.00  0.00    +0.000 OA
ATOM     22  H   UNL     1     129.898 130.689  86.012  0.00  0.00    +0.000 HD
ENDBRANCH  16  21
ENDBRANCH   3  11
BRANCH   2  23
ATOM     23  O   UNL     1     125.730 131.671  88.236  0.00  0.00    +0.000 OA
ATOM     24  H   UNL     1     125.563 132.246  88.399  0.00  0.00    +0.000 HD
ENDBRANCH   2  23
BRANCH   7  25
ATOM     25  O   UNL     1     122.161 131.176  87.794  0.00  0.00    +0.000 OA
ATOM     26  H   UNL     1     121.557 131.096  87.909  0.00  0.00    +0.000 HD
ENDBRANCH   7  25
BRANCH  10  27
ATOM     27  O   UNL     1     121.952 129.093  84.940  0.00  0.00    +0.000 OA
ATOM     28  H   UNL     1     121.676 129.390  84.471  0.00  0.00    +0.000 HD
ENDBRANCH  10  27
TORSDOF 7
ENDMDL
